/*---------------------------------------------------------------------------*\
  =========                 |
  \\      /  F ield         | OpenFOAM: The Open Source CFD Toolbox
   \\    /   O peration     | Website:  https://openfoam.org
    \\  /    A nd           | Version:  9
     \\/     M anipulation  |
\*---------------------------------------------------------------------------*/
Build  : 9-c96968adf6d8
Exec   : pimpleFoam
Date   : Jan 11 2023
Time   : 09:32:03
Host   : "juanse"
PID    : 11766
I/O    : uncollated
Case   : /home/juanse/OpenFOAM/juanse-9/run/BFS-PIMPLE-Re10000
nProcs : 1
sigFpe : Enabling floating point exception trapping (FOAM_SIGFPE).
fileModificationChecking : Monitoring run-time modified files using timeStampMaster (fileModificationSkew 10)
allowSystemOperations : Allowing user-supplied system call operations

// * * * * * * * * * * * * * * * * * * * * * * * * * * * * * * * * * * * * * //
Create time

Create mesh for time = 0


PIMPLE: No convergence criteria found


PIMPLE: No corrector convergence criteria found
        Calculations will do 3 corrections


PIMPLE: Operating solver in transient mode with 3 outer correctors


Reading field p

Reading field U

Reading/calculating face flux field phi

Selecting incompressible transport model Newtonian
Selecting turbulence model type laminar
Selecting laminar stress model Stokes
No MRF models present

No fvModels present
No fvConstraints present
Courant Number mean: 3.797e-08 max: 5.68199e-06

Starting time loop

Courant Number mean: 3.797e-08 max: 5.68199e-06
Time = 0.001

PIMPLE: Iteration 1
smoothSolver:  Solving for Ux, Initial residual = 1, Final residual = 3.08691e-06, No Iterations 1
smoothSolver:  Solving for Uy, Initial residual = 0.890282, Final residual = 2.80134e-06, No Iterations 1
smoothSolver:  Solving for Uz, Initial residual = 0.986872, Final residual = 2.70282e-06, No Iterations 1
GAMG:  Solving for p, Initial residual = 1, Final residual = 0.000971197, No Iterations 18
time step continuity errors : sum local = 7.37527e-11, global = -1.78792e-11, cumulative = -1.78792e-11
GAMG:  Solving for p, Initial residual = 6.77348e-05, Final residual = 9.91919e-06, No Iterations 3
time step continuity errors : sum local = 1.04286e-10, global = -4.71548e-11, cumulative = -6.5034e-11
GAMG:  Solving for p, Initial residual = 9.96827e-06, Final residual = 6.23032e-07, No Iterations 5
time step continuity errors : sum local = 6.54134e-12, global = 1.37996e-12, cumulative = -6.36541e-11
PIMPLE: Iteration 2
smoothSolver:  Solving for Ux, Initial residual = 0.452303, Final residual = 8.24303e-07, No Iterations 1
smoothSolver:  Solving for Uy, Initial residual = 0.2045, Final residual = 4.40388e-07, No Iterations 1
smoothSolver:  Solving for Uz, Initial residual = 0.100434, Final residual = 1.89412e-07, No Iterations 1
GAMG:  Solving for p, Initial residual = 0.00360361, Final residual = 8.16243e-06, No Iterations 16
time step continuity errors : sum local = 5.73645e-11, global = -1.42901e-11, cumulative = -7.79442e-11
GAMG:  Solving for p, Initial residual = 1.76537e-05, Final residual = 7.36898e-06, No Iterations 1
time step continuity errors : sum local = 7.74207e-11, global = 6.53535e-12, cumulative = -7.14088e-11
GAMG:  Solving for p, Initial residual = 7.38819e-06, Final residual = 8.44902e-07, No Iterations 3
time step continuity errors : sum local = 8.8752e-12, global = -4.05256e-12, cumulative = -7.54614e-11
PIMPLE: Iteration 3
smoothSolver:  Solving for Ux, Initial residual = 1.07766e-07, Final residual = 3.05651e-13, No Iterations 1
smoothSolver:  Solving for Uy, Initial residual = 0.00625559, Final residual = 2.05427e-08, No Iterations 1
smoothSolver:  Solving for Uz, Initial residual = 7.34618e-08, Final residual = 7.34618e-08, No Iterations 0
GAMG:  Solving for p, Initial residual = 8.3873e-07, Final residual = 8.3873e-07, No Iterations 0
time step continuity errors : sum local = 8.80976e-12, global = -4.0621e-12, cumulative = -7.95235e-11
GAMG:  Solving for p, Initial residual = 8.38717e-07, Final residual = 8.38717e-07, No Iterations 0
time step continuity errors : sum local = 8.80962e-12, global = -4.0621e-12, cumulative = -8.35856e-11
GAMG:  Solving for p, Initial residual = 8.38717e-07, Final residual = 8.38717e-07, No Iterations 0
time step continuity errors : sum local = 8.80962e-12, global = -4.0621e-12, cumulative = -8.76477e-11
ExecutionTime = 3.29 s  ClockTime = 4 s

Courant Number mean: 1.36672e-05 max: 0.000450435
Time = 0.002

PIMPLE: Iteration 1
smoothSolver:  Solving for Ux, Initial residual = 0.820913, Final residual = 1.49607e-06, No Iterations 1
smoothSolver:  Solving for Uy, Initial residual = 0.399994, Final residual = 8.44994e-07, No Iterations 1
smoothSolver:  Solving for Uz, Initial residual = 0.299864, Final residual = 5.65516e-07, No Iterations 1
GAMG:  Solving for p, Initial residual = 0.00975025, Final residual = 9.41552e-06, No Iterations 18
time step continuity errors : sum local = 9.8428e-11, global = 2.3858e-11, cumulative = -6.37897e-11
GAMG:  Solving for p, Initial residual = 0.000185682, Final residual = 7.47008e-06, No Iterations 5
time step continuity errors : sum local = 2.62604e-11, global = 1.27764e-11, cumulative = -5.10133e-11
GAMG:  Solving for p, Initial residual = 7.55813e-06, Final residual = 9.95771e-07, No Iterations 4
time step continuity errors : sum local = 3.48731e-12, global = 1.64881e-12, cumulative = -4.93645e-11
PIMPLE: Iteration 2
smoothSolver:  Solving for Ux, Initial residual = 4.60162e-08, Final residual = 4.60162e-08, No Iterations 0
smoothSolver:  Solving for Uy, Initial residual = 0.00518536, Final residual = 1.66561e-08, No Iterations 1
smoothSolver:  Solving for Uz, Initial residual = 4.21757e-08, Final residual = 4.21757e-08, No Iterations 0
GAMG:  Solving for p, Initial residual = 1.04089e-06, Final residual = 1.04089e-06, No Iterations 0
time step continuity errors : sum local = 3.64527e-12, global = 1.6375e-12, cumulative = -4.7727e-11
GAMG:  Solving for p, Initial residual = 1.04094e-06, Final residual = 1.04094e-06, No Iterations 0
time step continuity errors : sum local = 3.64542e-12, global = 1.63748e-12, cumulative = -4.60895e-11
GAMG:  Solving for p, Initial residual = 1.04094e-06, Final residual = 5.77726e-07, No Iterations 1
time step continuity errors : sum local = 2.02322e-12, global = -4.82957e-13, cumulative = -4.65725e-11
PIMPLE: Iteration 3
smoothSolver:  Solving for Ux, Initial residual = 3.26769e-09, Final residual = 3.26769e-09, No Iterations 0
smoothSolver:  Solving for Uy, Initial residual = 0.00136522, Final residual = 4.40545e-09, No Iterations 1
smoothSolver:  Solving for Uz, Initial residual = 1.94636e-09, Final residual = 1.94636e-09, No Iterations 0
GAMG:  Solving for p, Initial residual = 5.77904e-07, Final residual = 5.77904e-07, No Iterations 0
time step continuity errors : sum local = 2.02386e-12, global = -4.85005e-13, cumulative = -4.70575e-11
GAMG:  Solving for p, Initial residual = 5.77904e-07, Final residual = 5.77904e-07, No Iterations 0
time step continuity errors : sum local = 2.02386e-12, global = -4.85009e-13, cumulative = -4.75425e-11
GAMG:  Solving for p, Initial residual = 5.77904e-07, Final residual = 5.77904e-07, No Iterations 0
time step continuity errors : sum local = 2.02386e-12, global = -4.85009e-13, cumulative = -4.80275e-11
ExecutionTime = 5.25 s  ClockTime = 6 s

Courant Number mean: 1.3667e-05 max: 0.000447728
Time = 0.003

PIMPLE: Iteration 1
smoothSolver:  Solving for Ux, Initial residual = 0.450279, Final residual = 8.20617e-07, No Iterations 1
smoothSolver:  Solving for Uy, Initial residual = 0.930019, Final residual = 1.96874e-06, No Iterations 1
smoothSolver:  Solving for Uz, Initial residual = 0.100451, Final residual = 1.8945e-07, No Iterations 1
GAMG:  Solving for p, Initial residual = 0.00737443, Final residual = 7.06016e-06, No Iterations 18
time step continuity errors : sum local = 2.45875e-11, global = -5.95916e-12, cumulative = -5.39867e-11
GAMG:  Solving for p, Initial residual = 0.00982033, Final residual = 9.2572e-06, No Iterations 13
time step continuity errors : sum local = 1.53729e-13, global = -7.00933e-14, cumulative = -5.40568e-11
GAMG:  Solving for p, Initial residual = 1.76088e-05, Final residual = 8.80222e-07, No Iterations 7
time step continuity errors : sum local = 1.16478e-14, global = 1.96544e-15, cumulative = -5.40548e-11
PIMPLE: Iteration 2
smoothSolver:  Solving for Ux, Initial residual = 8.34313e-09, Final residual = 8.34313e-09, No Iterations 0
smoothSolver:  Solving for Uy, Initial residual = 0.000268982, Final residual = 8.8594e-10, No Iterations 1
smoothSolver:  Solving for Uz, Initial residual = 9.06516e-09, Final residual = 9.06516e-09, No Iterations 0
GAMG:  Solving for p, Initial residual = 1.4731e-05, Final residual = 7.30151e-07, No Iterations 1
time step continuity errors : sum local = 9.65855e-15, global = -8.89721e-17, cumulative = -5.40549e-11
GAMG:  Solving for p, Initial residual = 7.35339e-07, Final residual = 7.35339e-07, No Iterations 0
time step continuity errors : sum local = 9.72719e-15, global = -9.03893e-17, cumulative = -5.4055e-11
GAMG:  Solving for p, Initial residual = 7.35334e-07, Final residual = 7.35334e-07, No Iterations 0
time step continuity errors : sum local = 9.72712e-15, global = -9.03914e-17, cumulative = -5.40551e-11
PIMPLE: Iteration 3
smoothSolver:  Solving for Ux, Initial residual = 3.87382e-13, Final residual = 3.87382e-13, No Iterations 0
smoothSolver:  Solving for Uy, Initial residual = 5.44932e-08, Final residual = 5.44932e-08, No Iterations 0
smoothSolver:  Solving for Uz, Initial residual = 5.09738e-12, Final residual = 5.09738e-12, No Iterations 0
GAMG:  Solving for p, Initial residual = 7.35625e-07, Final residual = 7.35625e-07, No Iterations 0
time step continuity errors : sum local = 9.73097e-15, global = -9.03893e-17, cumulative = -5.40552e-11
GAMG:  Solving for p, Initial residual = 7.35624e-07, Final residual = 7.35624e-07, No Iterations 0
time step continuity errors : sum local = 9.73096e-15, global = -9.03893e-17, cumulative = -5.40553e-11
GAMG:  Solving for p, Initial residual = 7.35624e-07, Final residual = 7.35624e-07, No Iterations 0
time step continuity errors : sum local = 9.73096e-15, global = -9.03893e-17, cumulative = -5.40553e-11
ExecutionTime = 7.55 s  ClockTime = 8 s

Courant Number mean: 1.36671e-05 max: 0.000444525
Time = 0.004

PIMPLE: Iteration 1
smoothSolver:  Solving for Ux, Initial residual = 0.00118917, Final residual = 2.14986e-09, No Iterations 1
smoothSolver:  Solving for Uy, Initial residual = 0.944133, Final residual = 1.99048e-06, No Iterations 1
smoothSolver:  Solving for Uz, Initial residual = 0.00012203, Final residual = 3.44427e-10, No Iterations 1
GAMG:  Solving for p, Initial residual = 0.161556, Final residual = 0.000132774, No Iterations 5
time step continuity errors : sum local = 1.53158e-12, global = 1.98499e-13, cumulative = -5.38568e-11
GAMG:  Solving for p, Initial residual = 0.00024807, Final residual = 5.70555e-06, No Iterations 4
time step continuity errors : sum local = 5.56605e-14, global = 1.48944e-14, cumulative = -5.38419e-11
GAMG:  Solving for p, Initial residual = 5.67079e-06, Final residual = 5.55031e-07, No Iterations 4
time step continuity errors : sum local = 5.40603e-15, global = 7.71454e-16, cumulative = -5.38412e-11
PIMPLE: Iteration 2
smoothSolver:  Solving for Ux, Initial residual = 4.86051e-09, Final residual = 4.86051e-09, No Iterations 0
smoothSolver:  Solving for Uy, Initial residual = 0.0013486, Final residual = 5.62076e-09, No Iterations 1
smoothSolver:  Solving for Uz, Initial residual = 6.84852e-09, Final residual = 6.84852e-09, No Iterations 0
GAMG:  Solving for p, Initial residual = 1.46007e-05, Final residual = 4.90587e-07, No Iterations 1
time step continuity errors : sum local = 4.77792e-15, global = 6.55629e-17, cumulative = -5.38411e-11
GAMG:  Solving for p, Initial residual = 4.97044e-07, Final residual = 4.97044e-07, No Iterations 0
time step continuity errors : sum local = 4.84081e-15, global = 6.49745e-17, cumulative = -5.3841e-11
GAMG:  Solving for p, Initial residual = 4.97042e-07, Final residual = 4.97042e-07, No Iterations 0
time step continuity errors : sum local = 4.84079e-15, global = 6.49733e-17, cumulative = -5.3841e-11
PIMPLE: Iteration 3
smoothSolver:  Solving for Ux, Initial residual = 3.14439e-13, Final residual = 3.14439e-13, No Iterations 0
smoothSolver:  Solving for Uy, Initial residual = 8.96532e-08, Final residual = 8.96532e-08, No Iterations 0
smoothSolver:  Solving for Uz, Initial residual = 4.1826e-12, Final residual = 4.1826e-12, No Iterations 0
GAMG:  Solving for p, Initial residual = 4.96996e-07, Final residual = 4.96996e-07, No Iterations 0
time step continuity errors : sum local = 4.84035e-15, global = 6.49741e-17, cumulative = -5.38409e-11
GAMG:  Solving for p, Initial residual = 4.96993e-07, Final residual = 4.96993e-07, No Iterations 0
time step continuity errors : sum local = 4.84031e-15, global = 6.49741e-17, cumulative = -5.38409e-11
GAMG:  Solving for p, Initial residual = 4.96993e-07, Final residual = 4.96993e-07, No Iterations 0
time step continuity errors : sum local = 4.84031e-15, global = 6.49741e-17, cumulative = -5.38408e-11
ExecutionTime = 9.08 s  ClockTime = 9 s

Courant Number mean: 1.36671e-05 max: 0.000441657
Time = 0.005

PIMPLE: Iteration 1
smoothSolver:  Solving for Ux, Initial residual = 0.000875, Final residual = 1.57912e-09, No Iterations 1
smoothSolver:  Solving for Uy, Initial residual = 0.809768, Final residual = 1.67291e-06, No Iterations 1
smoothSolver:  Solving for Uz, Initial residual = 9.24061e-05, Final residual = 2.62646e-10, No Iterations 1
GAMG:  Solving for p, Initial residual = 0.130631, Final residual = 0.000107852, No Iterations 5
time step continuity errors : sum local = 9.43943e-13, global = -4.07661e-14, cumulative = -5.38816e-11
GAMG:  Solving for p, Initial residual = 0.000191505, Final residual = 6.60808e-06, No Iterations 4
time step continuity errors : sum local = 5.12201e-14, global = -1.56666e-14, cumulative = -5.38972e-11
GAMG:  Solving for p, Initial residual = 6.58714e-06, Final residual = 7.11539e-07, No Iterations 4
time step continuity errors : sum local = 5.51109e-15, global = -2.27523e-15, cumulative = -5.38995e-11
PIMPLE: Iteration 2
smoothSolver:  Solving for Ux, Initial residual = 3.65279e-09, Final residual = 3.65279e-09, No Iterations 0
smoothSolver:  Solving for Uy, Initial residual = 0.00137507, Final residual = 5.68594e-09, No Iterations 1
smoothSolver:  Solving for Uz, Initial residual = 5.51752e-09, Final residual = 5.51752e-09, No Iterations 0
GAMG:  Solving for p, Initial residual = 1.42853e-05, Final residual = 5.1715e-07, No Iterations 1
time step continuity errors : sum local = 4.00543e-15, global = -9.42097e-16, cumulative = -5.39004e-11
GAMG:  Solving for p, Initial residual = 5.25376e-07, Final residual = 5.25376e-07, No Iterations 0
time step continuity errors : sum local = 4.06915e-15, global = -9.40841e-16, cumulative = -5.39014e-11
GAMG:  Solving for p, Initial residual = 5.25371e-07, Final residual = 5.25371e-07, No Iterations 0
time step continuity errors : sum local = 4.06911e-15, global = -9.40838e-16, cumulative = -5.39023e-11
PIMPLE: Iteration 3
smoothSolver:  Solving for Ux, Initial residual = 2.58605e-13, Final residual = 2.58605e-13, No Iterations 0
smoothSolver:  Solving for Uy, Initial residual = 1.21693e-07, Final residual = 4.13362e-13, No Iterations 1
smoothSolver:  Solving for Uz, Initial residual = 3.51465e-12, Final residual = 3.51465e-12, No Iterations 0
GAMG:  Solving for p, Initial residual = 5.25807e-07, Final residual = 5.25807e-07, No Iterations 0
time step continuity errors : sum local = 4.07248e-15, global = -9.40839e-16, cumulative = -5.39033e-11
GAMG:  Solving for p, Initial residual = 5.25802e-07, Final residual = 5.25802e-07, No Iterations 0
time step continuity errors : sum local = 4.07245e-15, global = -9.40839e-16, cumulative = -5.39042e-11
GAMG:  Solving for p, Initial residual = 5.25802e-07, Final residual = 5.25802e-07, No Iterations 0
time step continuity errors : sum local = 4.07245e-15, global = -9.40839e-16, cumulative = -5.39051e-11
ExecutionTime = 10.61 s  ClockTime = 11 s

Courant Number mean: 1.36672e-05 max: 0.000439293
Time = 0.006

PIMPLE: Iteration 1
smoothSolver:  Solving for Ux, Initial residual = 0.000672505, Final residual = 1.21127e-09, No Iterations 1
smoothSolver:  Solving for Uy, Initial residual = 0.503762, Final residual = 1.03747e-06, No Iterations 1
smoothSolver:  Solving for Uz, Initial residual = 7.67117e-05, Final residual = 2.15787e-10, No Iterations 1
GAMG:  Solving for p, Initial residual = 0.101121, Final residual = 8.66975e-05, No Iterations 5
time step continuity errors : sum local = 6.19344e-13, global = 1.18871e-14, cumulative = -5.38933e-11
GAMG:  Solving for p, Initial residual = 0.000146972, Final residual = 7.34739e-06, No Iterations 3
time step continuity errors : sum local = 4.79644e-14, global = 2.89535e-15, cumulative = -5.38904e-11
GAMG:  Solving for p, Initial residual = 7.36205e-06, Final residual = 9.5634e-07, No Iterations 3
time step continuity errors : sum local = 6.23848e-15, global = -9.13459e-16, cumulative = -5.38913e-11
PIMPLE: Iteration 2
smoothSolver:  Solving for Ux, Initial residual = 2.88523e-09, Final residual = 2.88523e-09, No Iterations 0
smoothSolver:  Solving for Uy, Initial residual = 0.00144925, Final residual = 5.68423e-09, No Iterations 1
smoothSolver:  Solving for Uz, Initial residual = 4.63733e-09, Final residual = 4.63733e-09, No Iterations 0
GAMG:  Solving for p, Initial residual = 1.42025e-05, Final residual = 4.54437e-07, No Iterations 1
time step continuity errors : sum local = 2.96415e-15, global = -3.59773e-16, cumulative = -5.38916e-11
GAMG:  Solving for p, Initial residual = 4.63309e-07, Final residual = 4.63309e-07, No Iterations 0
time step continuity errors : sum local = 3.02203e-15, global = -3.59258e-16, cumulative = -5.3892e-11
GAMG:  Solving for p, Initial residual = 4.63302e-07, Final residual = 4.63302e-07, No Iterations 0
time step continuity errors : sum local = 3.02199e-15, global = -3.59257e-16, cumulative = -5.38924e-11
PIMPLE: Iteration 3
smoothSolver:  Solving for Ux, Initial residual = 2.29695e-13, Final residual = 2.29695e-13, No Iterations 0
smoothSolver:  Solving for Uy, Initial residual = 3.22329e-07, Final residual = 9.97972e-13, No Iterations 1
smoothSolver:  Solving for Uz, Initial residual = 3.04091e-12, Final residual = 3.04091e-12, No Iterations 0
GAMG:  Solving for p, Initial residual = 4.63849e-07, Final residual = 4.63849e-07, No Iterations 0
time step continuity errors : sum local = 3.02555e-15, global = -3.59258e-16, cumulative = -5.38927e-11
GAMG:  Solving for p, Initial residual = 4.63841e-07, Final residual = 4.63841e-07, No Iterations 0
time step continuity errors : sum local = 3.0255e-15, global = -3.59258e-16, cumulative = -5.38931e-11
GAMG:  Solving for p, Initial residual = 4.63841e-07, Final residual = 4.63841e-07, No Iterations 0
time step continuity errors : sum local = 3.0255e-15, global = -3.59258e-16, cumulative = -5.38934e-11
ExecutionTime = 12.08 s  ClockTime = 12 s

Courant Number mean: 1.36672e-05 max: 0.000437363
Time = 0.007

PIMPLE: Iteration 1
smoothSolver:  Solving for Ux, Initial residual = 0.000538905, Final residual = 9.69093e-10, No Iterations 1
smoothSolver:  Solving for Uy, Initial residual = 0.311817, Final residual = 6.15379e-07, No Iterations 1
smoothSolver:  Solving for Uz, Initial residual = 6.5718e-05, Final residual = 1.82634e-10, No Iterations 1
GAMG:  Solving for p, Initial residual = 0.0781568, Final residual = 6.82582e-05, No Iterations 5
time step continuity errors : sum local = 4.18334e-13, global = 8.84699e-15, cumulative = -5.38846e-11
GAMG:  Solving for p, Initial residual = 0.000112817, Final residual = 5.58585e-06, No Iterations 3
time step continuity errors : sum local = 3.19777e-14, global = 2.11241e-15, cumulative = -5.38825e-11
GAMG:  Solving for p, Initial residual = 5.59542e-06, Final residual = 7.37425e-07, No Iterations 3
time step continuity errors : sum local = 4.21918e-15, global = -5.61639e-16, cumulative = -5.3883e-11
PIMPLE: Iteration 2
smoothSolver:  Solving for Ux, Initial residual = 2.33324e-09, Final residual = 2.33324e-09, No Iterations 0
smoothSolver:  Solving for Uy, Initial residual = 0.001278, Final residual = 4.98688e-09, No Iterations 1
smoothSolver:  Solving for Uz, Initial residual = 4.06892e-09, Final residual = 4.06892e-09, No Iterations 0
GAMG:  Solving for p, Initial residual = 1.39727e-05, Final residual = 3.53936e-07, No Iterations 1
time step continuity errors : sum local = 2.0249e-15, global = -2.1842e-16, cumulative = -5.38832e-11
GAMG:  Solving for p, Initial residual = 3.61974e-07, Final residual = 3.61974e-07, No Iterations 0
time step continuity errors : sum local = 2.07089e-15, global = -2.18103e-16, cumulative = -5.38835e-11
GAMG:  Solving for p, Initial residual = 3.61965e-07, Final residual = 3.61965e-07, No Iterations 0
time step continuity errors : sum local = 2.07083e-15, global = -2.18102e-16, cumulative = -5.38837e-11
PIMPLE: Iteration 3
smoothSolver:  Solving for Ux, Initial residual = 2.13144e-13, Final residual = 2.13144e-13, No Iterations 0
smoothSolver:  Solving for Uy, Initial residual = 2.80348e-07, Final residual = 8.61466e-13, No Iterations 1
smoothSolver:  Solving for Uz, Initial residual = 2.71247e-12, Final residual = 2.71247e-12, No Iterations 0
GAMG:  Solving for p, Initial residual = 3.62201e-07, Final residual = 3.62201e-07, No Iterations 0
time step continuity errors : sum local = 2.07218e-15, global = -2.18102e-16, cumulative = -5.38839e-11
GAMG:  Solving for p, Initial residual = 3.62192e-07, Final residual = 3.62192e-07, No Iterations 0
time step continuity errors : sum local = 2.07214e-15, global = -2.18102e-16, cumulative = -5.38841e-11
GAMG:  Solving for p, Initial residual = 3.62192e-07, Final residual = 3.62192e-07, No Iterations 0
time step continuity errors : sum local = 2.07214e-15, global = -2.18102e-16, cumulative = -5.38843e-11
ExecutionTime = 13.54 s  ClockTime = 14 s

Courant Number mean: 1.36673e-05 max: 0.000435762
Time = 0.008

PIMPLE: Iteration 1
smoothSolver:  Solving for Ux, Initial residual = 0.000449538, Final residual = 8.07249e-10, No Iterations 1
smoothSolver:  Solving for Uy, Initial residual = 0.215647, Final residual = 4.24881e-07, No Iterations 1
smoothSolver:  Solving for Uz, Initial residual = 5.80719e-05, Final residual = 1.5933e-10, No Iterations 1
GAMG:  Solving for p, Initial residual = 0.0615092, Final residual = 5.2338e-05, No Iterations 5
time step continuity errors : sum local = 2.84842e-13, global = 6.42569e-15, cumulative = -5.38779e-11
GAMG:  Solving for p, Initial residual = 8.65561e-05, Final residual = 4.19343e-06, No Iterations 3
time step continuity errors : sum local = 2.1623e-14, global = 1.52383e-15, cumulative = -5.38764e-11
GAMG:  Solving for p, Initial residual = 4.20093e-06, Final residual = 9.05161e-07, No Iterations 2
time step continuity errors : sum local = 4.66537e-15, global = 2.90322e-16, cumulative = -5.38761e-11
PIMPLE: Iteration 2
smoothSolver:  Solving for Ux, Initial residual = 1.94679e-09, Final residual = 1.94679e-09, No Iterations 0
smoothSolver:  Solving for Uy, Initial residual = 0.00079576, Final residual = 3.00524e-09, No Iterations 1
smoothSolver:  Solving for Uz, Initial residual = 3.69691e-09, Final residual = 3.69691e-09, No Iterations 0
GAMG:  Solving for p, Initial residual = 1.45391e-05, Final residual = 5.53275e-07, No Iterations 1
time step continuity errors : sum local = 2.85156e-15, global = 1.35307e-16, cumulative = -5.3876e-11
GAMG:  Solving for p, Initial residual = 5.60586e-07, Final residual = 5.60586e-07, No Iterations 0
time step continuity errors : sum local = 2.88924e-15, global = 1.35199e-16, cumulative = -5.38758e-11
GAMG:  Solving for p, Initial residual = 5.60576e-07, Final residual = 5.60576e-07, No Iterations 0
time step continuity errors : sum local = 2.88919e-15, global = 1.35199e-16, cumulative = -5.38757e-11
PIMPLE: Iteration 3
smoothSolver:  Solving for Ux, Initial residual = 2.02067e-13, Final residual = 2.02067e-13, No Iterations 0
smoothSolver:  Solving for Uy, Initial residual = 2.88907e-07, Final residual = 8.46598e-13, No Iterations 1
smoothSolver:  Solving for Uz, Initial residual = 2.56601e-12, Final residual = 2.56601e-12, No Iterations 0
GAMG:  Solving for p, Initial residual = 5.60844e-07, Final residual = 5.60844e-07, No Iterations 0
time step continuity errors : sum local = 2.89057e-15, global = 1.35199e-16, cumulative = -5.38756e-11
GAMG:  Solving for p, Initial residual = 5.60835e-07, Final residual = 5.60835e-07, No Iterations 0
time step continuity errors : sum local = 2.89052e-15, global = 1.35199e-16, cumulative = -5.38754e-11
GAMG:  Solving for p, Initial residual = 5.60835e-07, Final residual = 5.60835e-07, No Iterations 0
time step continuity errors : sum local = 2.89052e-15, global = 1.35199e-16, cumulative = -5.38753e-11
ExecutionTime = 14.97 s  ClockTime = 15 s

Courant Number mean: 1.36673e-05 max: 0.000434403
Time = 0.009

PIMPLE: Iteration 1
smoothSolver:  Solving for Ux, Initial residual = 0.000388044, Final residual = 6.95882e-10, No Iterations 1
smoothSolver:  Solving for Uy, Initial residual = 0.222567, Final residual = 4.97929e-07, No Iterations 1
smoothSolver:  Solving for Uz, Initial residual = 5.2575e-05, Final residual = 1.42534e-10, No Iterations 1
GAMG:  Solving for p, Initial residual = 0.049673, Final residual = 3.94213e-05, No Iterations 5
time step continuity errors : sum local = 1.94862e-13, global = 4.74044e-15, cumulative = -5.38705e-11
GAMG:  Solving for p, Initial residual = 6.68085e-05, Final residual = 9.20305e-06, No Iterations 2
time step continuity errors : sum local = 4.34989e-14, global = -1.64355e-15, cumulative = -5.38722e-11
GAMG:  Solving for p, Initial residual = 9.18608e-06, Final residual = 6.84949e-07, No Iterations 3
time step continuity errors : sum local = 3.23644e-15, global = 2.37014e-16, cumulative = -5.3872e-11
PIMPLE: Iteration 2
smoothSolver:  Solving for Ux, Initial residual = 1.68249e-09, Final residual = 1.68249e-09, No Iterations 0
smoothSolver:  Solving for Uy, Initial residual = 0.00436433, Final residual = 1.74797e-08, No Iterations 1
smoothSolver:  Solving for Uz, Initial residual = 3.46175e-09, Final residual = 3.46175e-09, No Iterations 0
GAMG:  Solving for p, Initial residual = 1.47021e-05, Final residual = 4.59882e-07, No Iterations 1
time step continuity errors : sum local = 2.17291e-15, global = 1.2307e-16, cumulative = -5.38718e-11
GAMG:  Solving for p, Initial residual = 4.67603e-07, Final residual = 4.67603e-07, No Iterations 0
time step continuity errors : sum local = 2.2094e-15, global = 1.22991e-16, cumulative = -5.38717e-11
GAMG:  Solving for p, Initial residual = 4.67593e-07, Final residual = 4.67593e-07, No Iterations 0
time step continuity errors : sum local = 2.20935e-15, global = 1.22991e-16, cumulative = -5.38716e-11
PIMPLE: Iteration 3
smoothSolver:  Solving for Ux, Initial residual = 1.97209e-13, Final residual = 1.97209e-13, No Iterations 0
smoothSolver:  Solving for Uy, Initial residual = 2.55583e-07, Final residual = 7.53046e-13, No Iterations 1
smoothSolver:  Solving for Uz, Initial residual = 2.45008e-12, Final residual = 2.45008e-12, No Iterations 0
GAMG:  Solving for p, Initial residual = 4.67722e-07, Final residual = 4.67722e-07, No Iterations 0
time step continuity errors : sum local = 2.20996e-15, global = 1.22991e-16, cumulative = -5.38715e-11
GAMG:  Solving for p, Initial residual = 4.67715e-07, Final residual = 4.67715e-07, No Iterations 0
time step continuity errors : sum local = 2.20993e-15, global = 1.22991e-16, cumulative = -5.38713e-11
GAMG:  Solving for p, Initial residual = 4.67715e-07, Final residual = 4.67715e-07, No Iterations 0
time step continuity errors : sum local = 2.20993e-15, global = 1.22991e-16, cumulative = -5.38712e-11
ExecutionTime = 16.4 s  ClockTime = 17 s

Courant Number mean: 1.36674e-05 max: 0.000433221
Time = 0.01

PIMPLE: Iteration 1
smoothSolver:  Solving for Ux, Initial residual = 0.000343741, Final residual = 6.15796e-10, No Iterations 1
smoothSolver:  Solving for Uy, Initial residual = 0.135824, Final residual = 2.79733e-07, No Iterations 1
smoothSolver:  Solving for Uz, Initial residual = 4.84679e-05, Final residual = 1.2992e-10, No Iterations 1
GAMG:  Solving for p, Initial residual = 0.041224, Final residual = 2.92004e-05, No Iterations 5
time step continuity errors : sum local = 1.33059e-13, global = 2.99087e-15, cumulative = -5.38682e-11
GAMG:  Solving for p, Initial residual = 5.20628e-05, Final residual = 9.87926e-06, No Iterations 1
time step continuity errors : sum local = 4.33132e-14, global = 3.05179e-15, cumulative = -5.38652e-11
GAMG:  Solving for p, Initial residual = 9.87456e-06, Final residual = 5.42313e-07, No Iterations 4
time step continuity errors : sum local = 2.37752e-15, global = 2.39851e-16, cumulative = -5.38649e-11
PIMPLE: Iteration 2
smoothSolver:  Solving for Ux, Initial residual = 1.5895e-09, Final residual = 1.5895e-09, No Iterations 0
smoothSolver:  Solving for Uy, Initial residual = 0.00158359, Final residual = 5.21701e-09, No Iterations 1
smoothSolver:  Solving for Uz, Initial residual = 3.33279e-09, Final residual = 3.33279e-09, No Iterations 0
GAMG:  Solving for p, Initial residual = 1.49593e-05, Final residual = 4.06986e-07, No Iterations 1
time step continuity errors : sum local = 1.78391e-15, global = 1.0307e-16, cumulative = -5.38648e-11
GAMG:  Solving for p, Initial residual = 4.14905e-07, Final residual = 4.14905e-07, No Iterations 0
time step continuity errors : sum local = 1.81862e-15, global = 1.0296e-16, cumulative = -5.38647e-11
GAMG:  Solving for p, Initial residual = 4.14894e-07, Final residual = 4.14894e-07, No Iterations 0
time step continuity errors : sum local = 1.81857e-15, global = 1.0296e-16, cumulative = -5.38646e-11
PIMPLE: Iteration 3
smoothSolver:  Solving for Ux, Initial residual = 1.92843e-13, Final residual = 1.92843e-13, No Iterations 0
smoothSolver:  Solving for Uy, Initial residual = 2.41023e-07, Final residual = 7.38167e-13, No Iterations 1
smoothSolver:  Solving for Uz, Initial residual = 2.36066e-12, Final residual = 2.36066e-12, No Iterations 0
GAMG:  Solving for p, Initial residual = 4.15094e-07, Final residual = 4.15094e-07, No Iterations 0
time step continuity errors : sum local = 1.81944e-15, global = 1.0296e-16, cumulative = -5.38645e-11
GAMG:  Solving for p, Initial residual = 4.15087e-07, Final residual = 4.15087e-07, No Iterations 0
time step continuity errors : sum local = 1.81941e-15, global = 1.0296e-16, cumulative = -5.38644e-11
GAMG:  Solving for p, Initial residual = 4.15087e-07, Final residual = 4.15087e-07, No Iterations 0
time step continuity errors : sum local = 1.81941e-15, global = 1.0296e-16, cumulative = -5.38643e-11
ExecutionTime = 17.84 s  ClockTime = 18 s

Courant Number mean: 1.36675e-05 max: 0.000432173
Time = 0.011

PIMPLE: Iteration 1
smoothSolver:  Solving for Ux, Initial residual = 0.000310569, Final residual = 5.55968e-10, No Iterations 1
smoothSolver:  Solving for Uy, Initial residual = 0.112453, Final residual = 2.2808e-07, No Iterations 1
smoothSolver:  Solving for Uz, Initial residual = 4.52961e-05, Final residual = 1.20176e-10, No Iterations 1
GAMG:  Solving for p, Initial residual = 0.0350966, Final residual = 2.11461e-05, No Iterations 5
time step continuity errors : sum local = 8.9741e-14, global = 9.31395e-16, cumulative = -5.38634e-11
GAMG:  Solving for p, Initial residual = 4.11479e-05, Final residual = 6.5008e-06, No Iterations 1
time step continuity errors : sum local = 2.66593e-14, global = 2.08145e-15, cumulative = -5.38613e-11
GAMG:  Solving for p, Initial residual = 6.50072e-06, Final residual = 7.80389e-07, No Iterations 3
time step continuity errors : sum local = 3.20027e-15, global = -8.35383e-16, cumulative = -5.38621e-11
PIMPLE: Iteration 2
smoothSolver:  Solving for Ux, Initial residual = 1.39588e-09, Final residual = 1.39588e-09, No Iterations 0
smoothSolver:  Solving for Uy, Initial residual = 0.00176571, Final residual = 5.80541e-09, No Iterations 1
smoothSolver:  Solving for Uz, Initial residual = 3.13901e-09, Final residual = 3.13901e-09, No Iterations 0
GAMG:  Solving for p, Initial residual = 1.55563e-05, Final residual = 5.36656e-07, No Iterations 1
time step continuity errors : sum local = 2.20046e-15, global = -3.1561e-16, cumulative = -5.38625e-11
GAMG:  Solving for p, Initial residual = 5.44389e-07, Final residual = 5.44389e-07, No Iterations 0
time step continuity errors : sum local = 2.23217e-15, global = -3.15127e-16, cumulative = -5.38628e-11
GAMG:  Solving for p, Initial residual = 5.44376e-07, Final residual = 5.44376e-07, No Iterations 0
time step continuity errors : sum local = 2.23212e-15, global = -3.15126e-16, cumulative = -5.38631e-11
PIMPLE: Iteration 3
smoothSolver:  Solving for Ux, Initial residual = 1.89493e-13, Final residual = 1.89493e-13, No Iterations 0
smoothSolver:  Solving for Uy, Initial residual = 3.14185e-07, Final residual = 8.89982e-13, No Iterations 1
smoothSolver:  Solving for Uz, Initial residual = 2.28509e-12, Final residual = 2.28509e-12, No Iterations 0
GAMG:  Solving for p, Initial residual = 5.44625e-07, Final residual = 5.44625e-07, No Iterations 0
time step continuity errors : sum local = 2.23314e-15, global = -3.15126e-16, cumulative = -5.38634e-11
GAMG:  Solving for p, Initial residual = 5.44618e-07, Final residual = 5.44618e-07, No Iterations 0
time step continuity errors : sum local = 2.23311e-15, global = -3.15126e-16, cumulative = -5.38637e-11
GAMG:  Solving for p, Initial residual = 5.44618e-07, Final residual = 5.44618e-07, No Iterations 0
time step continuity errors : sum local = 2.23311e-15, global = -3.15126e-16, cumulative = -5.3864e-11
ExecutionTime = 19.25 s  ClockTime = 20 s

Courant Number mean: 1.36676e-05 max: 0.000431229
Time = 0.012

PIMPLE: Iteration 1
smoothSolver:  Solving for Ux, Initial residual = 0.000284834, Final residual = 5.09684e-10, No Iterations 1
smoothSolver:  Solving for Uy, Initial residual = 0.152715, Final residual = 3.59292e-07, No Iterations 1
smoothSolver:  Solving for Uz, Initial residual = 4.27872e-05, Final residual = 1.12402e-10, No Iterations 1
GAMG:  Solving for p, Initial residual = 0.0312035, Final residual = 2.2839e-05, No Iterations 4
time step continuity errors : sum local = 9.09381e-14, global = 4.56757e-15, cumulative = -5.38595e-11
GAMG:  Solving for p, Initial residual = 3.96958e-05, Final residual = 6.81216e-06, No Iterations 2
time step continuity errors : sum local = 2.62995e-14, global = 3.44987e-15, cumulative = -5.3856e-11
GAMG:  Solving for p, Initial residual = 6.79696e-06, Final residual = 5.55754e-07, No Iterations 3
time step continuity errors : sum local = 2.14518e-15, global = 1.3845e-16, cumulative = -5.38559e-11
PIMPLE: Iteration 2
smoothSolver:  Solving for Ux, Initial residual = 1.21986e-09, Final residual = 1.21986e-09, No Iterations 0
smoothSolver:  Solving for Uy, Initial residual = 0.00456336, Final residual = 1.84486e-08, No Iterations 1
smoothSolver:  Solving for Uz, Initial residual = 2.95829e-09, Final residual = 2.95829e-09, No Iterations 0
GAMG:  Solving for p, Initial residual = 1.57042e-05, Final residual = 4.0393e-07, No Iterations 1
time step continuity errors : sum local = 1.55908e-15, global = 2.23575e-16, cumulative = -5.38556e-11
GAMG:  Solving for p, Initial residual = 4.11865e-07, Final residual = 4.11865e-07, No Iterations 0
time step continuity errors : sum local = 1.58971e-15, global = 2.23647e-16, cumulative = -5.38554e-11
GAMG:  Solving for p, Initial residual = 4.11853e-07, Final residual = 4.11853e-07, No Iterations 0
time step continuity errors : sum local = 1.58967e-15, global = 2.23647e-16, cumulative = -5.38552e-11
PIMPLE: Iteration 3
smoothSolver:  Solving for Ux, Initial residual = 1.85235e-13, Final residual = 1.85235e-13, No Iterations 0
smoothSolver:  Solving for Uy, Initial residual = 4.0636e-07, Final residual = 1.26187e-12, No Iterations 1
smoothSolver:  Solving for Uz, Initial residual = 2.21525e-12, Final residual = 2.21525e-12, No Iterations 0
GAMG:  Solving for p, Initial residual = 4.12118e-07, Final residual = 4.12118e-07, No Iterations 0
time step continuity errors : sum local = 1.59069e-15, global = 2.23647e-16, cumulative = -5.3855e-11
GAMG:  Solving for p, Initial residual = 4.12108e-07, Final residual = 4.12108e-07, No Iterations 0
time step continuity errors : sum local = 1.59065e-15, global = 2.23647e-16, cumulative = -5.38548e-11
GAMG:  Solving for p, Initial residual = 4.12108e-07, Final residual = 4.12108e-07, No Iterations 0
time step continuity errors : sum local = 1.59065e-15, global = 2.23647e-16, cumulative = -5.38545e-11
ExecutionTime = 20.66 s  ClockTime = 21 s

Courant Number mean: 1.36677e-05 max: 0.000430367
Time = 0.013

PIMPLE: Iteration 1
smoothSolver:  Solving for Ux, Initial residual = 0.000264266, Final residual = 4.72806e-10, No Iterations 1
smoothSolver:  Solving for Uy, Initial residual = 0.163706, Final residual = 3.72328e-07, No Iterations 1
smoothSolver:  Solving for Uz, Initial residual = 4.07376e-05, Final residual = 1.06078e-10, No Iterations 1
GAMG:  Solving for p, Initial residual = 0.0290191, Final residual = 1.95664e-05, No Iterations 4
time step continuity errors : sum local = 7.35089e-14, global = 6.79889e-15, cumulative = -5.38477e-11
GAMG:  Solving for p, Initial residual = 3.40843e-05, Final residual = 6.6549e-06, No Iterations 1
time step continuity errors : sum local = 2.43032e-14, global = 7.36464e-16, cumulative = -5.3847e-11
GAMG:  Solving for p, Initial residual = 6.6571e-06, Final residual = 7.58197e-07, No Iterations 3
time step continuity errors : sum local = 2.76873e-15, global = 9.30254e-16, cumulative = -5.38461e-11
PIMPLE: Iteration 2
smoothSolver:  Solving for Ux, Initial residual = 1.15943e-09, Final residual = 1.15943e-09, No Iterations 0
smoothSolver:  Solving for Uy, Initial residual = 0.00202688, Final residual = 7.61865e-09, No Iterations 1
smoothSolver:  Solving for Uz, Initial residual = 2.86707e-09, Final residual = 2.86707e-09, No Iterations 0
GAMG:  Solving for p, Initial residual = 1.62182e-05, Final residual = 5.0953e-07, No Iterations 1
time step continuity errors : sum local = 1.86047e-15, global = 5.52818e-16, cumulative = -5.38455e-11
GAMG:  Solving for p, Initial residual = 5.1769e-07, Final residual = 5.1769e-07, No Iterations 0
time step continuity errors : sum local = 1.89026e-15, global = 5.52473e-16, cumulative = -5.3845e-11
GAMG:  Solving for p, Initial residual = 5.17677e-07, Final residual = 5.17677e-07, No Iterations 0
time step continuity errors : sum local = 1.89021e-15, global = 5.52472e-16, cumulative = -5.38444e-11
PIMPLE: Iteration 3
smoothSolver:  Solving for Ux, Initial residual = 1.81756e-13, Final residual = 1.81756e-13, No Iterations 0
smoothSolver:  Solving for Uy, Initial residual = 5.32616e-07, Final residual = 1.6639e-12, No Iterations 1
smoothSolver:  Solving for Uz, Initial residual = 2.15161e-12, Final residual = 2.15161e-12, No Iterations 0
GAMG:  Solving for p, Initial residual = 5.18003e-07, Final residual = 5.18003e-07, No Iterations 0
time step continuity errors : sum local = 1.8914e-15, global = 5.52472e-16, cumulative = -5.38439e-11
GAMG:  Solving for p, Initial residual = 5.17996e-07, Final residual = 5.17996e-07, No Iterations 0
time step continuity errors : sum local = 1.89138e-15, global = 5.52472e-16, cumulative = -5.38433e-11
GAMG:  Solving for p, Initial residual = 5.17996e-07, Final residual = 5.17996e-07, No Iterations 0
time step continuity errors : sum local = 1.89138e-15, global = 5.52472e-16, cumulative = -5.38428e-11
ExecutionTime = 22.03 s  ClockTime = 22 s

Courant Number mean: 1.36678e-05 max: 0.000429572
Time = 0.014

PIMPLE: Iteration 1
smoothSolver:  Solving for Ux, Initial residual = 0.000247404, Final residual = 4.42683e-10, No Iterations 1
smoothSolver:  Solving for Uy, Initial residual = 0.22977, Final residual = 5.50155e-07, No Iterations 1
smoothSolver:  Solving for Uz, Initial residual = 3.90327e-05, Final residual = 1.0083e-10, No Iterations 1
GAMG:  Solving for p, Initial residual = 0.0272494, Final residual = 1.7403e-05, No Iterations 4
time step continuity errors : sum local = 6.19699e-14, global = 6.21115e-15, cumulative = -5.38365e-11
GAMG:  Solving for p, Initial residual = 3.05648e-05, Final residual = 6.46019e-06, No Iterations 1
time step continuity errors : sum local = 2.24084e-14, global = 1.6127e-16, cumulative = -5.38364e-11
GAMG:  Solving for p, Initial residual = 6.45948e-06, Final residual = 7.01808e-07, No Iterations 3
time step continuity errors : sum local = 2.43422e-15, global = 9.13667e-16, cumulative = -5.38355e-11
PIMPLE: Iteration 2
smoothSolver:  Solving for Ux, Initial residual = 1.06492e-09, Final residual = 1.06492e-09, No Iterations 0
smoothSolver:  Solving for Uy, Initial residual = 0.00209085, Final residual = 7.83753e-09, No Iterations 1
smoothSolver:  Solving for Uz, Initial residual = 2.75477e-09, Final residual = 2.75477e-09, No Iterations 0
GAMG:  Solving for p, Initial residual = 1.64702e-05, Final residual = 5.77384e-07, No Iterations 1
time step continuity errors : sum local = 2.00248e-15, global = 4.73564e-16, cumulative = -5.3835e-11
GAMG:  Solving for p, Initial residual = 5.85932e-07, Final residual = 5.85932e-07, No Iterations 0
time step continuity errors : sum local = 2.03212e-15, global = 4.73163e-16, cumulative = -5.38345e-11
GAMG:  Solving for p, Initial residual = 5.85916e-07, Final residual = 5.85916e-07, No Iterations 0
time step continuity errors : sum local = 2.03206e-15, global = 4.73162e-16, cumulative = -5.3834e-11
PIMPLE: Iteration 3
smoothSolver:  Solving for Ux, Initial residual = 1.77312e-13, Final residual = 1.77312e-13, No Iterations 0
smoothSolver:  Solving for Uy, Initial residual = 3.87361e-07, Final residual = 1.24535e-12, No Iterations 1
smoothSolver:  Solving for Uz, Initial residual = 2.09433e-12, Final residual = 2.09433e-12, No Iterations 0
GAMG:  Solving for p, Initial residual = 5.86319e-07, Final residual = 5.86319e-07, No Iterations 0
time step continuity errors : sum local = 2.03346e-15, global = 4.73163e-16, cumulative = -5.38336e-11
GAMG:  Solving for p, Initial residual = 5.86311e-07, Final residual = 5.86311e-07, No Iterations 0
time step continuity errors : sum local = 2.03343e-15, global = 4.73163e-16, cumulative = -5.38331e-11
GAMG:  Solving for p, Initial residual = 5.86311e-07, Final residual = 5.86311e-07, No Iterations 0
time step continuity errors : sum local = 2.03343e-15, global = 4.73163e-16, cumulative = -5.38326e-11
ExecutionTime = 23.43 s  ClockTime = 24 s

Courant Number mean: 1.36679e-05 max: 0.000428831
Time = 0.015

PIMPLE: Iteration 1
smoothSolver:  Solving for Ux, Initial residual = 0.000233281, Final residual = 4.17559e-10, No Iterations 1
smoothSolver:  Solving for Uy, Initial residual = 0.16436, Final residual = 3.93372e-07, No Iterations 1
smoothSolver:  Solving for Uz, Initial residual = 3.76015e-05, Final residual = 9.64263e-11, No Iterations 1
GAMG:  Solving for p, Initial residual = 0.0257489, Final residual = 1.98409e-05, No Iterations 4
time step continuity errors : sum local = 6.72183e-14, global = 3.05956e-16, cumulative = -5.38323e-11
GAMG:  Solving for p, Initial residual = 3.11018e-05, Final residual = 7.20539e-06, No Iterations 1
time step continuity errors : sum local = 2.38221e-14, global = 2.68759e-15, cumulative = -5.38296e-11
GAMG:  Solving for p, Initial residual = 7.19798e-06, Final residual = 5.9341e-07, No Iterations 4
time step continuity errors : sum local = 1.96182e-15, global = 3.1503e-16, cumulative = -5.38293e-11
PIMPLE: Iteration 2
smoothSolver:  Solving for Ux, Initial residual = 9.9681e-10, Final residual = 9.9681e-10, No Iterations 0
smoothSolver:  Solving for Uy, Initial residual = 0.0025784, Final residual = 9.60868e-09, No Iterations 1
smoothSolver:  Solving for Uz, Initial residual = 2.66852e-09, Final residual = 2.66852e-09, No Iterations 0
GAMG:  Solving for p, Initial residual = 1.67312e-05, Final residual = 5.55737e-07, No Iterations 1
time step continuity errors : sum local = 1.83706e-15, global = 6.09596e-17, cumulative = -5.38293e-11
GAMG:  Solving for p, Initial residual = 5.64238e-07, Final residual = 5.64238e-07, No Iterations 0
time step continuity errors : sum local = 1.86516e-15, global = 6.07408e-17, cumulative = -5.38292e-11
GAMG:  Solving for p, Initial residual = 5.64217e-07, Final residual = 5.64217e-07, No Iterations 0
time step continuity errors : sum local = 1.86509e-15, global = 6.07403e-17, cumulative = -5.38291e-11
PIMPLE: Iteration 3
smoothSolver:  Solving for Ux, Initial residual = 1.73013e-13, Final residual = 1.73013e-13, No Iterations 0
smoothSolver:  Solving for Uy, Initial residual = 3.28284e-07, Final residual = 1.10934e-12, No Iterations 1
smoothSolver:  Solving for Uz, Initial residual = 2.05182e-12, Final residual = 2.05182e-12, No Iterations 0
GAMG:  Solving for p, Initial residual = 5.64789e-07, Final residual = 5.64789e-07, No Iterations 0
time step continuity errors : sum local = 1.86699e-15, global = 6.07406e-17, cumulative = -5.38291e-11
GAMG:  Solving for p, Initial residual = 5.64781e-07, Final residual = 5.64781e-07, No Iterations 0
time step continuity errors : sum local = 1.86696e-15, global = 6.07406e-17, cumulative = -5.3829e-11
GAMG:  Solving for p, Initial residual = 5.64781e-07, Final residual = 5.64781e-07, No Iterations 0
time step continuity errors : sum local = 1.86696e-15, global = 6.07406e-17, cumulative = -5.3829e-11
ExecutionTime = 24.84 s  ClockTime = 25 s

Courant Number mean: 1.3668e-05 max: 0.000428137
Time = 0.016

PIMPLE: Iteration 1
smoothSolver:  Solving for Ux, Initial residual = 0.000221282, Final residual = 3.96279e-10, No Iterations 1
smoothSolver:  Solving for Uy, Initial residual = 0.116317, Final residual = 2.63895e-07, No Iterations 1
smoothSolver:  Solving for Uz, Initial residual = 3.63787e-05, Final residual = 9.26734e-11, No Iterations 1
GAMG:  Solving for p, Initial residual = 0.0244316, Final residual = 2.21214e-05, No Iterations 4
time step continuity errors : sum local = 7.15354e-14, global = 1.708e-15, cumulative = -5.38272e-11
GAMG:  Solving for p, Initial residual = 3.18589e-05, Final residual = 8.89101e-06, No Iterations 1
time step continuity errors : sum local = 2.81048e-14, global = 1.86087e-15, cumulative = -5.38254e-11
GAMG:  Solving for p, Initial residual = 8.88479e-06, Final residual = 5.20995e-07, No Iterations 4
time step continuity errors : sum local = 1.64673e-15, global = 2.07386e-16, cumulative = -5.38252e-11
PIMPLE: Iteration 2
smoothSolver:  Solving for Ux, Initial residual = 9.32646e-10, Final residual = 9.32646e-10, No Iterations 0
smoothSolver:  Solving for Uy, Initial residual = 0.00368538, Final residual = 1.37662e-08, No Iterations 1
smoothSolver:  Solving for Uz, Initial residual = 2.58505e-09, Final residual = 2.58505e-09, No Iterations 0
GAMG:  Solving for p, Initial residual = 1.69974e-05, Final residual = 5.20056e-07, No Iterations 1
time step continuity errors : sum local = 1.64358e-15, global = 5.2199e-17, cumulative = -5.38251e-11
GAMG:  Solving for p, Initial residual = 5.28874e-07, Final residual = 5.28874e-07, No Iterations 0
time step continuity errors : sum local = 1.67145e-15, global = 5.20701e-17, cumulative = -5.38251e-11
GAMG:  Solving for p, Initial residual = 5.28852e-07, Final residual = 5.28852e-07, No Iterations 0
time step continuity errors : sum local = 1.67138e-15, global = 5.20699e-17, cumulative = -5.3825e-11
PIMPLE: Iteration 3
smoothSolver:  Solving for Ux, Initial residual = 1.69213e-13, Final residual = 1.69213e-13, No Iterations 0
smoothSolver:  Solving for Uy, Initial residual = 3.95787e-07, Final residual = 1.33548e-12, No Iterations 1
smoothSolver:  Solving for Uz, Initial residual = 2.00983e-12, Final residual = 2.00983e-12, No Iterations 0
GAMG:  Solving for p, Initial residual = 5.2945e-07, Final residual = 5.2945e-07, No Iterations 0
time step continuity errors : sum local = 1.67327e-15, global = 5.20701e-17, cumulative = -5.3825e-11
GAMG:  Solving for p, Initial residual = 5.29442e-07, Final residual = 5.29442e-07, No Iterations 0
time step continuity errors : sum local = 1.67324e-15, global = 5.20701e-17, cumulative = -5.38249e-11
GAMG:  Solving for p, Initial residual = 5.29442e-07, Final residual = 5.29442e-07, No Iterations 0
time step continuity errors : sum local = 1.67324e-15, global = 5.20701e-17, cumulative = -5.38249e-11
ExecutionTime = 26.24 s  ClockTime = 27 s

Courant Number mean: 1.3668e-05 max: 0.000427481
Time = 0.017

PIMPLE: Iteration 1
smoothSolver:  Solving for Ux, Initial residual = 0.000210919, Final residual = 3.77974e-10, No Iterations 1
smoothSolver:  Solving for Uy, Initial residual = 0.0733853, Final residual = 1.38586e-07, No Iterations 1
smoothSolver:  Solving for Uz, Initial residual = 3.53276e-05, Final residual = 8.94534e-11, No Iterations 1
GAMG:  Solving for p, Initial residual = 0.0232454, Final residual = 1.09953e-05, No Iterations 5
time step continuity errors : sum local = 3.40379e-14, global = 1.25715e-15, cumulative = -5.38236e-11
GAMG:  Solving for p, Initial residual = 1.99583e-05, Final residual = 4.21549e-06, No Iterations 1
time step continuity errors : sum local = 1.27727e-14, global = 1.1561e-15, cumulative = -5.38225e-11
GAMG:  Solving for p, Initial residual = 4.2186e-06, Final residual = 8.74971e-07, No Iterations 2
time step continuity errors : sum local = 2.65102e-15, global = 3.4598e-16, cumulative = -5.38221e-11
PIMPLE: Iteration 2
smoothSolver:  Solving for Ux, Initial residual = 8.60855e-10, Final residual = 8.60855e-10, No Iterations 0
smoothSolver:  Solving for Uy, Initial residual = 0.000829401, Final residual = 2.96957e-09, No Iterations 1
smoothSolver:  Solving for Uz, Initial residual = 2.48562e-09, Final residual = 2.48562e-09, No Iterations 0
GAMG:  Solving for p, Initial residual = 1.75906e-05, Final residual = 6.93821e-07, No Iterations 1
time step continuity errors : sum local = 2.10201e-15, global = 1.77686e-16, cumulative = -5.38219e-11
GAMG:  Solving for p, Initial residual = 7.0274e-07, Final residual = 7.0274e-07, No Iterations 0
time step continuity errors : sum local = 2.12903e-15, global = 1.77548e-16, cumulative = -5.38217e-11
GAMG:  Solving for p, Initial residual = 7.02717e-07, Final residual = 7.02717e-07, No Iterations 0
time step continuity errors : sum local = 2.12896e-15, global = 1.77548e-16, cumulative = -5.38216e-11
PIMPLE: Iteration 3
smoothSolver:  Solving for Ux, Initial residual = 1.66237e-13, Final residual = 1.66237e-13, No Iterations 0
smoothSolver:  Solving for Uy, Initial residual = 5.92379e-07, Final residual = 1.85973e-12, No Iterations 1
smoothSolver:  Solving for Uz, Initial residual = 1.96908e-12, Final residual = 1.96908e-12, No Iterations 0
GAMG:  Solving for p, Initial residual = 7.03351e-07, Final residual = 7.03351e-07, No Iterations 0
time step continuity errors : sum local = 2.13088e-15, global = 1.77548e-16, cumulative = -5.38214e-11
GAMG:  Solving for p, Initial residual = 7.03342e-07, Final residual = 7.03342e-07, No Iterations 0
time step continuity errors : sum local = 2.13086e-15, global = 1.77548e-16, cumulative = -5.38212e-11
GAMG:  Solving for p, Initial residual = 7.03342e-07, Final residual = 7.03342e-07, No Iterations 0
time step continuity errors : sum local = 2.13086e-15, global = 1.77548e-16, cumulative = -5.3821e-11
ExecutionTime = 27.62 s  ClockTime = 28 s

Courant Number mean: 1.36681e-05 max: 0.00042686
Time = 0.018

PIMPLE: Iteration 1
smoothSolver:  Solving for Ux, Initial residual = 0.000201827, Final residual = 3.61989e-10, No Iterations 1
smoothSolver:  Solving for Uy, Initial residual = 0.161553, Final residual = 3.78157e-07, No Iterations 1
smoothSolver:  Solving for Uz, Initial residual = 3.44106e-05, Final residual = 8.6649e-11, No Iterations 1
GAMG:  Solving for p, Initial residual = 0.0221601, Final residual = 1.18124e-05, No Iterations 5
time step continuity errors : sum local = 3.50952e-14, global = 1.69021e-15, cumulative = -5.38193e-11
GAMG:  Solving for p, Initial residual = 1.96157e-05, Final residual = 4.76814e-06, No Iterations 1
time step continuity errors : sum local = 1.38831e-14, global = 1.16368e-15, cumulative = -5.38182e-11
GAMG:  Solving for p, Initial residual = 4.77371e-06, Final residual = 8.91683e-07, No Iterations 2
time step continuity errors : sum local = 2.59615e-15, global = 2.62466e-16, cumulative = -5.38179e-11
PIMPLE: Iteration 2
smoothSolver:  Solving for Ux, Initial residual = 8.16842e-10, Final residual = 8.16842e-10, No Iterations 0
smoothSolver:  Solving for Uy, Initial residual = 0.00127127, Final residual = 4.76914e-09, No Iterations 1
smoothSolver:  Solving for Uz, Initial residual = 2.41132e-09, Final residual = 2.41132e-09, No Iterations 0
GAMG:  Solving for p, Initial residual = 1.78661e-05, Final residual = 7.22406e-07, No Iterations 1
time step continuity errors : sum local = 2.10313e-15, global = 1.75068e-16, cumulative = -5.38177e-11
GAMG:  Solving for p, Initial residual = 7.3129e-07, Final residual = 7.3129e-07, No Iterations 0
time step continuity errors : sum local = 2.129e-15, global = 1.75005e-16, cumulative = -5.38176e-11
GAMG:  Solving for p, Initial residual = 7.31268e-07, Final residual = 7.31268e-07, No Iterations 0
time step continuity errors : sum local = 2.12893e-15, global = 1.75005e-16, cumulative = -5.38174e-11
PIMPLE: Iteration 3
smoothSolver:  Solving for Ux, Initial residual = 1.62739e-13, Final residual = 1.62739e-13, No Iterations 0
smoothSolver:  Solving for Uy, Initial residual = 6.91261e-07, Final residual = 2.14601e-12, No Iterations 1
smoothSolver:  Solving for Uz, Initial residual = 1.92829e-12, Final residual = 1.92829e-12, No Iterations 0
GAMG:  Solving for p, Initial residual = 7.31908e-07, Final residual = 7.31908e-07, No Iterations 0
time step continuity errors : sum local = 2.1308e-15, global = 1.75005e-16, cumulative = -5.38172e-11
GAMG:  Solving for p, Initial residual = 7.31899e-07, Final residual = 7.31899e-07, No Iterations 0
time step continuity errors : sum local = 2.13077e-15, global = 1.75005e-16, cumulative = -5.3817e-11
GAMG:  Solving for p, Initial residual = 7.31899e-07, Final residual = 7.31899e-07, No Iterations 0
time step continuity errors : sum local = 2.13077e-15, global = 1.75005e-16, cumulative = -5.38169e-11
ExecutionTime = 29.04 s  ClockTime = 29 s

Courant Number mean: 1.36682e-05 max: 0.000426267
Time = 0.019

PIMPLE: Iteration 1
smoothSolver:  Solving for Ux, Initial residual = 0.000193773, Final residual = 3.47888e-10, No Iterations 1
smoothSolver:  Solving for Uy, Initial residual = 0.0845211, Final residual = 1.88655e-07, No Iterations 1
smoothSolver:  Solving for Uz, Initial residual = 3.36024e-05, Final residual = 8.41937e-11, No Iterations 1
GAMG:  Solving for p, Initial residual = 0.0211529, Final residual = 1.22017e-05, No Iterations 5
time step continuity errors : sum local = 3.48731e-14, global = 1.91823e-15, cumulative = -5.3815e-11
GAMG:  Solving for p, Initial residual = 1.90561e-05, Final residual = 5.02508e-06, No Iterations 1
time step continuity errors : sum local = 1.40908e-14, global = 1.21661e-15, cumulative = -5.38137e-11
GAMG:  Solving for p, Initial residual = 5.03223e-06, Final residual = 8.5608e-07, No Iterations 2
time step continuity errors : sum local = 2.40042e-15, global = 2.55388e-16, cumulative = -5.38135e-11
PIMPLE: Iteration 2
smoothSolver:  Solving for Ux, Initial residual = 7.78305e-10, Final residual = 7.78305e-10, No Iterations 0
smoothSolver:  Solving for Uy, Initial residual = 0.00163253, Final residual = 6.27674e-09, No Iterations 1
smoothSolver:  Solving for Uz, Initial residual = 2.34218e-09, Final residual = 2.34218e-09, No Iterations 0
GAMG:  Solving for p, Initial residual = 1.80793e-05, Final residual = 7.33578e-07, No Iterations 1
time step continuity errors : sum local = 2.05678e-15, global = 1.98544e-16, cumulative = -5.38133e-11
GAMG:  Solving for p, Initial residual = 7.42739e-07, Final residual = 7.42739e-07, No Iterations 0
time step continuity errors : sum local = 2.08246e-15, global = 1.98508e-16, cumulative = -5.38131e-11
GAMG:  Solving for p, Initial residual = 7.42716e-07, Final residual = 7.42716e-07, No Iterations 0
time step continuity errors : sum local = 2.0824e-15, global = 1.98508e-16, cumulative = -5.38129e-11
PIMPLE: Iteration 3
smoothSolver:  Solving for Ux, Initial residual = 1.59156e-13, Final residual = 1.59156e-13, No Iterations 0
smoothSolver:  Solving for Uy, Initial residual = 7.16256e-07, Final residual = 2.21883e-12, No Iterations 1
smoothSolver:  Solving for Uz, Initial residual = 1.88834e-12, Final residual = 1.88834e-12, No Iterations 0
GAMG:  Solving for p, Initial residual = 7.43335e-07, Final residual = 7.43335e-07, No Iterations 0
time step continuity errors : sum local = 2.08413e-15, global = 1.98508e-16, cumulative = -5.38127e-11
GAMG:  Solving for p, Initial residual = 7.43325e-07, Final residual = 7.43325e-07, No Iterations 0
time step continuity errors : sum local = 2.0841e-15, global = 1.98508e-16, cumulative = -5.38125e-11
GAMG:  Solving for p, Initial residual = 7.43325e-07, Final residual = 7.43325e-07, No Iterations 0
time step continuity errors : sum local = 2.0841e-15, global = 1.98508e-16, cumulative = -5.38123e-11
ExecutionTime = 30.43 s  ClockTime = 31 s

Courant Number mean: 1.36683e-05 max: 0.0004257
Time = 0.02

PIMPLE: Iteration 1
smoothSolver:  Solving for Ux, Initial residual = 0.000186583, Final residual = 3.35351e-10, No Iterations 1
smoothSolver:  Solving for Uy, Initial residual = 0.0659176, Final residual = 1.52717e-07, No Iterations 1
smoothSolver:  Solving for Uz, Initial residual = 3.28821e-05, Final residual = 8.20182e-11, No Iterations 1
GAMG:  Solving for p, Initial residual = 0.0202144, Final residual = 1.2437e-05, No Iterations 5
time step continuity errors : sum local = 3.4266e-14, global = 1.9485e-15, cumulative = -5.38103e-11
GAMG:  Solving for p, Initial residual = 1.85134e-05, Final residual = 5.14088e-06, No Iterations 1
time step continuity errors : sum local = 1.39106e-14, global = 1.24371e-15, cumulative = -5.38091e-11
GAMG:  Solving for p, Initial residual = 5.14961e-06, Final residual = 8.13709e-07, No Iterations 2
time step continuity errors : sum local = 2.20171e-15, global = 2.67178e-16, cumulative = -5.38088e-11
PIMPLE: Iteration 2
smoothSolver:  Solving for Ux, Initial residual = 7.41978e-10, Final residual = 7.41978e-10, No Iterations 0
smoothSolver:  Solving for Uy, Initial residual = 0.00194179, Final residual = 7.54683e-09, No Iterations 1
smoothSolver:  Solving for Uz, Initial residual = 2.2785e-09, Final residual = 2.2785e-09, No Iterations 0
GAMG:  Solving for p, Initial residual = 1.82794e-05, Final residual = 7.34842e-07, No Iterations 1
time step continuity errors : sum local = 1.98818e-15, global = 2.19637e-16, cumulative = -5.38086e-11
GAMG:  Solving for p, Initial residual = 7.44814e-07, Final residual = 7.44814e-07, No Iterations 0
time step continuity errors : sum local = 2.01516e-15, global = 2.19609e-16, cumulative = -5.38084e-11
GAMG:  Solving for p, Initial residual = 7.44789e-07, Final residual = 7.44789e-07, No Iterations 0
time step continuity errors : sum local = 2.01509e-15, global = 2.19608e-16, cumulative = -5.38082e-11
PIMPLE: Iteration 3
smoothSolver:  Solving for Ux, Initial residual = 1.55666e-13, Final residual = 1.55666e-13, No Iterations 0
smoothSolver:  Solving for Uy, Initial residual = 7.38245e-07, Final residual = 2.28556e-12, No Iterations 1
smoothSolver:  Solving for Uz, Initial residual = 1.84941e-12, Final residual = 1.84941e-12, No Iterations 0
GAMG:  Solving for p, Initial residual = 7.45413e-07, Final residual = 7.45413e-07, No Iterations 0
time step continuity errors : sum local = 2.01678e-15, global = 2.19609e-16, cumulative = -5.3808e-11
GAMG:  Solving for p, Initial residual = 7.454e-07, Final residual = 7.454e-07, No Iterations 0
time step continuity errors : sum local = 2.01675e-15, global = 2.19609e-16, cumulative = -5.38077e-11
GAMG:  Solving for p, Initial residual = 7.454e-07, Final residual = 7.454e-07, No Iterations 0
time step continuity errors : sum local = 2.01675e-15, global = 2.19609e-16, cumulative = -5.38075e-11
ExecutionTime = 31.82 s  ClockTime = 32 s

Courant Number mean: 1.36684e-05 max: 0.000425156
Time = 0.021

PIMPLE: Iteration 1
smoothSolver:  Solving for Ux, Initial residual = 0.000180116, Final residual = 3.2412e-10, No Iterations 1
smoothSolver:  Solving for Uy, Initial residual = 0.0500137, Final residual = 1.08794e-07, No Iterations 1
smoothSolver:  Solving for Uz, Initial residual = 3.22334e-05, Final residual = 8.00794e-11, No Iterations 1
GAMG:  Solving for p, Initial residual = 0.019332, Final residual = 1.25314e-05, No Iterations 5
time step continuity errors : sum local = 3.33489e-14, global = 1.8954e-15, cumulative = -5.38056e-11
GAMG:  Solving for p, Initial residual = 1.79697e-05, Final residual = 5.20067e-06, No Iterations 1
time step continuity errors : sum local = 1.36062e-14, global = 1.21517e-15, cumulative = -5.38044e-11
GAMG:  Solving for p, Initial residual = 5.21091e-06, Final residual = 7.85149e-07, No Iterations 2
time step continuity errors : sum local = 2.05406e-15, global = 2.9301e-16, cumulative = -5.38041e-11
PIMPLE: Iteration 2
smoothSolver:  Solving for Ux, Initial residual = 7.07828e-10, Final residual = 7.07828e-10, No Iterations 0
smoothSolver:  Solving for Uy, Initial residual = 0.0021221, Final residual = 8.28068e-09, No Iterations 1
smoothSolver:  Solving for Uz, Initial residual = 2.22155e-09, Final residual = 2.22155e-09, No Iterations 0
GAMG:  Solving for p, Initial residual = 1.84738e-05, Final residual = 7.43872e-07, No Iterations 1
time step continuity errors : sum local = 1.94595e-15, global = 2.44086e-16, cumulative = -5.38039e-11
GAMG:  Solving for p, Initial residual = 7.5457e-07, Final residual = 7.5457e-07, No Iterations 0
time step continuity errors : sum local = 1.97394e-15, global = 2.44055e-16, cumulative = -5.38036e-11
GAMG:  Solving for p, Initial residual = 7.54543e-07, Final residual = 7.54543e-07, No Iterations 0
time step continuity errors : sum local = 1.97387e-15, global = 2.44055e-16, cumulative = -5.38034e-11
PIMPLE: Iteration 3
smoothSolver:  Solving for Ux, Initial residual = 1.5232e-13, Final residual = 1.5232e-13, No Iterations 0
smoothSolver:  Solving for Uy, Initial residual = 7.7523e-07, Final residual = 2.40124e-12, No Iterations 1
smoothSolver:  Solving for Uz, Initial residual = 1.81158e-12, Final residual = 1.81158e-12, No Iterations 0
GAMG:  Solving for p, Initial residual = 7.55181e-07, Final residual = 7.55181e-07, No Iterations 0
time step continuity errors : sum local = 1.97554e-15, global = 2.44055e-16, cumulative = -5.38031e-11
GAMG:  Solving for p, Initial residual = 7.55169e-07, Final residual = 7.55169e-07, No Iterations 0
time step continuity errors : sum local = 1.9755e-15, global = 2.44055e-16, cumulative = -5.38029e-11
GAMG:  Solving for p, Initial residual = 7.55169e-07, Final residual = 7.55169e-07, No Iterations 0
time step continuity errors : sum local = 1.9755e-15, global = 2.44055e-16, cumulative = -5.38026e-11
ExecutionTime = 33.19 s  ClockTime = 34 s

Courant Number mean: 1.36685e-05 max: 0.000424632
Time = 0.022

PIMPLE: Iteration 1
smoothSolver:  Solving for Ux, Initial residual = 0.000174281, Final residual = 3.14103e-10, No Iterations 1
smoothSolver:  Solving for Uy, Initial residual = 0.0404826, Final residual = 7.60351e-08, No Iterations 1
smoothSolver:  Solving for Uz, Initial residual = 3.16447e-05, Final residual = 7.83334e-11, No Iterations 1
GAMG:  Solving for p, Initial residual = 0.0184993, Final residual = 1.25106e-05, No Iterations 5
time step continuity errors : sum local = 3.22174e-14, global = 1.81533e-15, cumulative = -5.38008e-11
GAMG:  Solving for p, Initial residual = 1.74247e-05, Final residual = 5.23631e-06, No Iterations 1
time step continuity errors : sum local = 1.32679e-14, global = 1.15823e-15, cumulative = -5.37997e-11
GAMG:  Solving for p, Initial residual = 5.2476e-06, Final residual = 7.80073e-07, No Iterations 2
time step continuity errors : sum local = 1.9765e-15, global = 3.11661e-16, cumulative = -5.37994e-11
PIMPLE: Iteration 2
smoothSolver:  Solving for Ux, Initial residual = 6.7611e-10, Final residual = 6.7611e-10, No Iterations 0
smoothSolver:  Solving for Uy, Initial residual = 0.00216829, Final residual = 8.46509e-09, No Iterations 1
smoothSolver:  Solving for Uz, Initial residual = 2.16803e-09, Final residual = 2.16803e-09, No Iterations 0
GAMG:  Solving for p, Initial residual = 1.86668e-05, Final residual = 7.62031e-07, No Iterations 1
time step continuity errors : sum local = 1.93068e-15, global = 2.5911e-16, cumulative = -5.37991e-11
GAMG:  Solving for p, Initial residual = 7.73132e-07, Final residual = 7.73132e-07, No Iterations 0
time step continuity errors : sum local = 1.9588e-15, global = 2.59073e-16, cumulative = -5.37988e-11
GAMG:  Solving for p, Initial residual = 7.73105e-07, Final residual = 7.73105e-07, No Iterations 0
time step continuity errors : sum local = 1.95873e-15, global = 2.59073e-16, cumulative = -5.37986e-11
PIMPLE: Iteration 3
smoothSolver:  Solving for Ux, Initial residual = 1.4912e-13, Final residual = 1.4912e-13, No Iterations 0
smoothSolver:  Solving for Uy, Initial residual = 8.23711e-07, Final residual = 2.55849e-12, No Iterations 1
smoothSolver:  Solving for Uz, Initial residual = 1.77489e-12, Final residual = 1.77489e-12, No Iterations 0
GAMG:  Solving for p, Initial residual = 7.73744e-07, Final residual = 7.73744e-07, No Iterations 0
time step continuity errors : sum local = 1.96035e-15, global = 2.59073e-16, cumulative = -5.37983e-11
GAMG:  Solving for p, Initial residual = 7.73731e-07, Final residual = 7.73731e-07, No Iterations 0
time step continuity errors : sum local = 1.96032e-15, global = 2.59073e-16, cumulative = -5.37981e-11
GAMG:  Solving for p, Initial residual = 7.73731e-07, Final residual = 7.73731e-07, No Iterations 0
time step continuity errors : sum local = 1.96032e-15, global = 2.59073e-16, cumulative = -5.37978e-11
ExecutionTime = 34.61 s  ClockTime = 35 s

Courant Number mean: 1.36686e-05 max: 0.000424126
Time = 0.023

PIMPLE: Iteration 1
smoothSolver:  Solving for Ux, Initial residual = 0.000168992, Final residual = 3.05077e-10, No Iterations 1
smoothSolver:  Solving for Uy, Initial residual = 0.0359859, Final residual = 6.47346e-08, No Iterations 1
smoothSolver:  Solving for Uz, Initial residual = 3.11087e-05, Final residual = 7.67595e-11, No Iterations 1
GAMG:  Solving for p, Initial residual = 0.0177137, Final residual = 1.24022e-05, No Iterations 5
time step continuity errors : sum local = 3.09555e-14, global = 1.73188e-15, cumulative = -5.37961e-11
GAMG:  Solving for p, Initial residual = 1.6885e-05, Final residual = 5.24054e-06, No Iterations 1
time step continuity errors : sum local = 1.288e-14, global = 1.0935e-15, cumulative = -5.3795e-11
GAMG:  Solving for p, Initial residual = 5.25247e-06, Final residual = 7.84359e-07, No Iterations 2
time step continuity errors : sum local = 1.9277e-15, global = 3.18913e-16, cumulative = -5.37947e-11
PIMPLE: Iteration 2
smoothSolver:  Solving for Ux, Initial residual = 6.46763e-10, Final residual = 6.46763e-10, No Iterations 0
smoothSolver:  Solving for Uy, Initial residual = 0.00213625, Final residual = 8.33245e-09, No Iterations 1
smoothSolver:  Solving for Uz, Initial residual = 2.11773e-09, Final residual = 2.11773e-09, No Iterations 0
GAMG:  Solving for p, Initial residual = 1.88508e-05, Final residual = 7.75748e-07, No Iterations 1
time step continuity errors : sum local = 1.90644e-15, global = 2.63844e-16, cumulative = -5.37944e-11
GAMG:  Solving for p, Initial residual = 7.87028e-07, Final residual = 7.87028e-07, No Iterations 0
time step continuity errors : sum local = 1.93416e-15, global = 2.63803e-16, cumulative = -5.37941e-11
GAMG:  Solving for p, Initial residual = 7.87e-07, Final residual = 7.87e-07, No Iterations 0
time step continuity errors : sum local = 1.93409e-15, global = 2.63803e-16, cumulative = -5.37939e-11
PIMPLE: Iteration 3
smoothSolver:  Solving for Ux, Initial residual = 1.46034e-13, Final residual = 1.46034e-13, No Iterations 0
smoothSolver:  Solving for Uy, Initial residual = 8.7057e-07, Final residual = 2.71584e-12, No Iterations 1
smoothSolver:  Solving for Uz, Initial residual = 1.73933e-12, Final residual = 1.73933e-12, No Iterations 0
GAMG:  Solving for p, Initial residual = 7.87622e-07, Final residual = 7.87622e-07, No Iterations 0
time step continuity errors : sum local = 1.93562e-15, global = 2.63803e-16, cumulative = -5.37936e-11
GAMG:  Solving for p, Initial residual = 7.8761e-07, Final residual = 7.8761e-07, No Iterations 0
time step continuity errors : sum local = 1.93559e-15, global = 2.63803e-16, cumulative = -5.37933e-11
GAMG:  Solving for p, Initial residual = 7.8761e-07, Final residual = 7.8761e-07, No Iterations 0
time step continuity errors : sum local = 1.93559e-15, global = 2.63803e-16, cumulative = -5.37931e-11
ExecutionTime = 36.03 s  ClockTime = 36 s

Courant Number mean: 1.36687e-05 max: 0.000423635
Time = 0.024

PIMPLE: Iteration 1
smoothSolver:  Solving for Ux, Initial residual = 0.000164133, Final residual = 2.96843e-10, No Iterations 1
smoothSolver:  Solving for Uy, Initial residual = 0.0322731, Final residual = 5.99079e-08, No Iterations 1
smoothSolver:  Solving for Uz, Initial residual = 3.06207e-05, Final residual = 7.53432e-11, No Iterations 1
GAMG:  Solving for p, Initial residual = 0.0169727, Final residual = 1.22197e-05, No Iterations 5
time step continuity errors : sum local = 2.96051e-14, global = 1.65464e-15, cumulative = -5.37914e-11
GAMG:  Solving for p, Initial residual = 1.63441e-05, Final residual = 5.19481e-06, No Iterations 1
time step continuity errors : sum local = 1.24017e-14, global = 1.03171e-15, cumulative = -5.37904e-11
GAMG:  Solving for p, Initial residual = 5.20704e-06, Final residual = 7.83738e-07, No Iterations 2
time step continuity errors : sum local = 1.87097e-15, global = 3.16694e-16, cumulative = -5.37901e-11
PIMPLE: Iteration 2
smoothSolver:  Solving for Ux, Initial residual = 6.19625e-10, Final residual = 6.19625e-10, No Iterations 0
smoothSolver:  Solving for Uy, Initial residual = 0.00208933, Final residual = 8.14092e-09, No Iterations 1
smoothSolver:  Solving for Uz, Initial residual = 2.07051e-09, Final residual = 2.07051e-09, No Iterations 0
GAMG:  Solving for p, Initial residual = 1.90158e-05, Final residual = 7.83036e-07, No Iterations 1
time step continuity errors : sum local = 1.8692e-15, global = 2.60966e-16, cumulative = -5.37898e-11
GAMG:  Solving for p, Initial residual = 7.94388e-07, Final residual = 7.94388e-07, No Iterations 0
time step continuity errors : sum local = 1.8963e-15, global = 2.60923e-16, cumulative = -5.37896e-11
GAMG:  Solving for p, Initial residual = 7.9436e-07, Final residual = 7.9436e-07, No Iterations 0
time step continuity errors : sum local = 1.89624e-15, global = 2.60923e-16, cumulative = -5.37893e-11
PIMPLE: Iteration 3
smoothSolver:  Solving for Ux, Initial residual = 1.43031e-13, Final residual = 1.43031e-13, No Iterations 0
smoothSolver:  Solving for Uy, Initial residual = 9.03914e-07, Final residual = 2.83433e-12, No Iterations 1
smoothSolver:  Solving for Uz, Initial residual = 1.70488e-12, Final residual = 1.70488e-12, No Iterations 0
GAMG:  Solving for p, Initial residual = 7.94981e-07, Final residual = 7.94981e-07, No Iterations 0
time step continuity errors : sum local = 1.89772e-15, global = 2.60923e-16, cumulative = -5.3789e-11
GAMG:  Solving for p, Initial residual = 7.94969e-07, Final residual = 7.94969e-07, No Iterations 0
time step continuity errors : sum local = 1.89769e-15, global = 2.60923e-16, cumulative = -5.37888e-11
GAMG:  Solving for p, Initial residual = 7.94969e-07, Final residual = 7.94969e-07, No Iterations 0
time step continuity errors : sum local = 1.89769e-15, global = 2.60923e-16, cumulative = -5.37885e-11
ExecutionTime = 37.42 s  ClockTime = 38 s

Courant Number mean: 1.36688e-05 max: 0.00042316
Time = 0.025

PIMPLE: Iteration 1
smoothSolver:  Solving for Ux, Initial residual = 0.000159653, Final residual = 2.89285e-10, No Iterations 1
smoothSolver:  Solving for Uy, Initial residual = 0.0276591, Final residual = 5.09107e-08, No Iterations 1
smoothSolver:  Solving for Uz, Initial residual = 3.01691e-05, Final residual = 7.40465e-11, No Iterations 1
GAMG:  Solving for p, Initial residual = 0.0162738, Final residual = 1.19686e-05, No Iterations 5
time step continuity errors : sum local = 2.81834e-14, global = 1.58675e-15, cumulative = -5.37869e-11
GAMG:  Solving for p, Initial residual = 1.58002e-05, Final residual = 5.10501e-06, No Iterations 1
time step continuity errors : sum local = 1.18533e-14, global = 9.74896e-16, cumulative = -5.37859e-11
GAMG:  Solving for p, Initial residual = 5.11722e-06, Final residual = 7.71818e-07, No Iterations 2
time step continuity errors : sum local = 1.79201e-15, global = 3.07864e-16, cumulative = -5.37856e-11
PIMPLE: Iteration 2
smoothSolver:  Solving for Ux, Initial residual = 5.94443e-10, Final residual = 5.94443e-10, No Iterations 0
smoothSolver:  Solving for Uy, Initial residual = 0.00206529, Final residual = 8.04384e-09, No Iterations 1
smoothSolver:  Solving for Uz, Initial residual = 2.02583e-09, Final residual = 2.02583e-09, No Iterations 0
GAMG:  Solving for p, Initial residual = 1.91602e-05, Final residual = 7.83073e-07, No Iterations 1
time step continuity errors : sum local = 1.81806e-15, global = 2.53104e-16, cumulative = -5.37854e-11
GAMG:  Solving for p, Initial residual = 7.94482e-07, Final residual = 7.94482e-07, No Iterations 0
time step continuity errors : sum local = 1.84455e-15, global = 2.53062e-16, cumulative = -5.37851e-11
GAMG:  Solving for p, Initial residual = 7.94454e-07, Final residual = 7.94454e-07, No Iterations 0
time step continuity errors : sum local = 1.84448e-15, global = 2.53062e-16, cumulative = -5.37849e-11
PIMPLE: Iteration 3
smoothSolver:  Solving for Ux, Initial residual = 1.40099e-13, Final residual = 1.40099e-13, No Iterations 0
smoothSolver:  Solving for Uy, Initial residual = 9.20108e-07, Final residual = 2.90085e-12, No Iterations 1
smoothSolver:  Solving for Uz, Initial residual = 1.67153e-12, Final residual = 1.67153e-12, No Iterations 0
GAMG:  Solving for p, Initial residual = 7.9508e-07, Final residual = 7.9508e-07, No Iterations 0
time step continuity errors : sum local = 1.84594e-15, global = 2.53062e-16, cumulative = -5.37846e-11
GAMG:  Solving for p, Initial residual = 7.95069e-07, Final residual = 7.95069e-07, No Iterations 0
time step continuity errors : sum local = 1.84591e-15, global = 2.53062e-16, cumulative = -5.37844e-11
GAMG:  Solving for p, Initial residual = 7.95069e-07, Final residual = 7.95069e-07, No Iterations 0
time step continuity errors : sum local = 1.84591e-15, global = 2.53062e-16, cumulative = -5.37841e-11
ExecutionTime = 38.81 s  ClockTime = 39 s

Courant Number mean: 1.36689e-05 max: 0.000422697
Time = 0.026

PIMPLE: Iteration 1
smoothSolver:  Solving for Ux, Initial residual = 0.000155504, Final residual = 2.82334e-10, No Iterations 1
smoothSolver:  Solving for Uy, Initial residual = 0.0238201, Final residual = 4.34582e-08, No Iterations 1
smoothSolver:  Solving for Uz, Initial residual = 2.9748e-05, Final residual = 7.28513e-11, No Iterations 1
GAMG:  Solving for p, Initial residual = 0.0156144, Final residual = 1.16567e-05, No Iterations 5
time step continuity errors : sum local = 2.67122e-14, global = 1.52475e-15, cumulative = -5.37826e-11
GAMG:  Solving for p, Initial residual = 1.5246e-05, Final residual = 4.97701e-06, No Iterations 1
time step continuity errors : sum local = 1.12526e-14, global = 9.20771e-16, cumulative = -5.37817e-11
GAMG:  Solving for p, Initial residual = 4.98911e-06, Final residual = 7.47428e-07, No Iterations 2
time step continuity errors : sum local = 1.6898e-15, global = 2.92929e-16, cumulative = -5.37814e-11
PIMPLE: Iteration 2
smoothSolver:  Solving for Ux, Initial residual = 5.70997e-10, Final residual = 5.70997e-10, No Iterations 0
smoothSolver:  Solving for Uy, Initial residual = 0.0020808, Final residual = 8.10761e-09, No Iterations 1
smoothSolver:  Solving for Uz, Initial residual = 1.98402e-09, Final residual = 1.98402e-09, No Iterations 0
GAMG:  Solving for p, Initial residual = 1.92886e-05, Final residual = 7.76182e-07, No Iterations 1
time step continuity errors : sum local = 1.75473e-15, global = 2.40884e-16, cumulative = -5.37811e-11
GAMG:  Solving for p, Initial residual = 7.87701e-07, Final residual = 7.87701e-07, No Iterations 0
time step continuity errors : sum local = 1.78077e-15, global = 2.40844e-16, cumulative = -5.37809e-11
GAMG:  Solving for p, Initial residual = 7.87672e-07, Final residual = 7.87672e-07, No Iterations 0
time step continuity errors : sum local = 1.7807e-15, global = 2.40844e-16, cumulative = -5.37807e-11
PIMPLE: Iteration 3
smoothSolver:  Solving for Ux, Initial residual = 1.37233e-13, Final residual = 1.37233e-13, No Iterations 0
smoothSolver:  Solving for Uy, Initial residual = 9.18743e-07, Final residual = 2.91349e-12, No Iterations 1
smoothSolver:  Solving for Uz, Initial residual = 1.63924e-12, Final residual = 1.63924e-12, No Iterations 0
GAMG:  Solving for p, Initial residual = 7.88313e-07, Final residual = 7.88313e-07, No Iterations 0
time step continuity errors : sum local = 1.78215e-15, global = 2.40844e-16, cumulative = -5.37804e-11
GAMG:  Solving for p, Initial residual = 7.88301e-07, Final residual = 7.88301e-07, No Iterations 0
time step continuity errors : sum local = 1.78212e-15, global = 2.40844e-16, cumulative = -5.37802e-11
GAMG:  Solving for p, Initial residual = 7.88301e-07, Final residual = 7.88301e-07, No Iterations 0
time step continuity errors : sum local = 1.78212e-15, global = 2.40844e-16, cumulative = -5.37799e-11
ExecutionTime = 40.22 s  ClockTime = 41 s

Courant Number mean: 1.3669e-05 max: 0.000422247
Time = 0.027

PIMPLE: Iteration 1
smoothSolver:  Solving for Ux, Initial residual = 0.000151645, Final residual = 2.7591e-10, No Iterations 1
smoothSolver:  Solving for Uy, Initial residual = 0.021494, Final residual = 4.08966e-08, No Iterations 1
smoothSolver:  Solving for Uz, Initial residual = 2.93536e-05, Final residual = 7.1736e-11, No Iterations 1
GAMG:  Solving for p, Initial residual = 0.0149927, Final residual = 1.12924e-05, No Iterations 5
time step continuity errors : sum local = 2.52112e-14, global = 1.46147e-15, cumulative = -5.37785e-11
GAMG:  Solving for p, Initial residual = 1.46795e-05, Final residual = 4.81589e-06, No Iterations 1
time step continuity errors : sum local = 1.06138e-14, global = 8.6603e-16, cumulative = -5.37776e-11
GAMG:  Solving for p, Initial residual = 4.8278e-06, Final residual = 7.12906e-07, No Iterations 2
time step continuity errors : sum local = 1.57111e-15, global = 2.71223e-16, cumulative = -5.37773e-11
PIMPLE: Iteration 2
smoothSolver:  Solving for Ux, Initial residual = 5.49084e-10, Final residual = 5.49084e-10, No Iterations 0
smoothSolver:  Solving for Uy, Initial residual = 0.00213745, Final residual = 8.33706e-09, No Iterations 1
smoothSolver:  Solving for Uz, Initial residual = 1.94398e-09, Final residual = 1.94398e-09, No Iterations 0
GAMG:  Solving for p, Initial residual = 1.93966e-05, Final residual = 7.65221e-07, No Iterations 1
[...]
time step continuity errors : sum local = 1.05011e-16, global = -1.73691e-17, cumulative = -5.3166e-11
ExecutionTime = 1258.56 s  ClockTime = 1260 s

Courant Number mean: 1.3699e-05 max: 0.000343702
Time = 0.76

PIMPLE: Iteration 1
smoothSolver:  Solving for Ux, Initial residual = 2.6432e-05, Final residual = 7.08653e-11, No Iterations 1
smoothSolver:  Solving for Uy, Initial residual = 0.000573732, Final residual = 1.5568e-09, No Iterations 1
smoothSolver:  Solving for Uz, Initial residual = 7.29416e-06, Final residual = 1.59112e-11, No Iterations 1
GAMG:  Solving for p, Initial residual = 0.000442887, Final residual = 5.5649e-06, No Iterations 1
time step continuity errors : sum local = 1.33414e-15, global = 1.29996e-16, cumulative = -5.31659e-11
GAMG:  Solving for p, Initial residual = 5.56119e-06, Final residual = 5.56119e-06, No Iterations 0
time step continuity errors : sum local = 1.33275e-15, global = 1.29985e-16, cumulative = -5.31658e-11
GAMG:  Solving for p, Initial residual = 5.56117e-06, Final residual = 7.61407e-07, No Iterations 3
time step continuity errors : sum local = 1.82472e-16, global = -7.71906e-17, cumulative = -5.31658e-11
PIMPLE: Iteration 2
smoothSolver:  Solving for Ux, Initial residual = 2.55404e-11, Final residual = 2.55404e-11, No Iterations 0
smoothSolver:  Solving for Uy, Initial residual = 0.00129248, Final residual = 4.75215e-09, No Iterations 1
smoothSolver:  Solving for Uz, Initial residual = 6.61339e-11, Final residual = 6.61339e-11, No Iterations 0
GAMG:  Solving for p, Initial residual = 4.84307e-06, Final residual = 4.84307e-06, No Iterations 0
time step continuity errors : sum local = 1.16053e-15, global = -7.73975e-17, cumulative = -5.31659e-11
GAMG:  Solving for p, Initial residual = 4.84894e-06, Final residual = 4.84894e-06, No Iterations 0
time step continuity errors : sum local = 1.16194e-15, global = -7.73979e-17, cumulative = -5.3166e-11
GAMG:  Solving for p, Initial residual = 4.84896e-06, Final residual = 4.36913e-07, No Iterations 1
time step continuity errors : sum local = 1.04697e-16, global = -1.73973e-17, cumulative = -5.3166e-11
PIMPLE: Iteration 3
smoothSolver:  Solving for Ux, Initial residual = 1.12469e-13, Final residual = 1.12469e-13, No Iterations 0
smoothSolver:  Solving for Uy, Initial residual = 0.000250028, Final residual = 9.12533e-10, No Iterations 1
smoothSolver:  Solving for Uz, Initial residual = 1.83085e-13, Final residual = 1.83085e-13, No Iterations 0
GAMG:  Solving for p, Initial residual = 4.37465e-07, Final residual = 4.37465e-07, No Iterations 0
time step continuity errors : sum local = 1.04829e-16, global = -1.73401e-17, cumulative = -5.3166e-11
GAMG:  Solving for p, Initial residual = 4.37468e-07, Final residual = 4.37468e-07, No Iterations 0
time step continuity errors : sum local = 1.0483e-16, global = -1.734e-17, cumulative = -5.31661e-11
GAMG:  Solving for p, Initial residual = 4.37468e-07, Final residual = 4.37468e-07, No Iterations 0
time step continuity errors : sum local = 1.0483e-16, global = -1.734e-17, cumulative = -5.31661e-11
ExecutionTime = 1259.8 s  ClockTime = 1261 s

Courant Number mean: 1.3699e-05 max: 0.00034364
Time = 0.761

PIMPLE: Iteration 1
smoothSolver:  Solving for Ux, Initial residual = 2.6417e-05, Final residual = 7.08197e-11, No Iterations 1
smoothSolver:  Solving for Uy, Initial residual = 0.000570266, Final residual = 1.54485e-09, No Iterations 1
smoothSolver:  Solving for Uz, Initial residual = 7.29081e-06, Final residual = 1.59026e-11, No Iterations 1
GAMG:  Solving for p, Initial residual = 0.000442247, Final residual = 5.56086e-06, No Iterations 1
time step continuity errors : sum local = 1.33204e-15, global = 1.29777e-16, cumulative = -5.31659e-11
GAMG:  Solving for p, Initial residual = 5.55716e-06, Final residual = 5.55716e-06, No Iterations 0
time step continuity errors : sum local = 1.33065e-15, global = 1.29766e-16, cumulative = -5.31658e-11
GAMG:  Solving for p, Initial residual = 5.55715e-06, Final residual = 7.60754e-07, No Iterations 3
time step continuity errors : sum local = 1.8216e-16, global = -7.70868e-17, cumulative = -5.31659e-11
PIMPLE: Iteration 2
smoothSolver:  Solving for Ux, Initial residual = 2.55113e-11, Final residual = 2.55113e-11, No Iterations 0
smoothSolver:  Solving for Uy, Initial residual = 0.00129106, Final residual = 4.74708e-09, No Iterations 1
smoothSolver:  Solving for Uz, Initial residual = 6.60578e-11, Final residual = 6.60578e-11, No Iterations 0
GAMG:  Solving for p, Initial residual = 4.83983e-06, Final residual = 4.83983e-06, No Iterations 0
time step continuity errors : sum local = 1.15877e-15, global = -7.72933e-17, cumulative = -5.3166e-11
GAMG:  Solving for p, Initial residual = 4.8457e-06, Final residual = 4.8457e-06, No Iterations 0
time step continuity errors : sum local = 1.16018e-15, global = -7.72937e-17, cumulative = -5.3166e-11
GAMG:  Solving for p, Initial residual = 4.84572e-06, Final residual = 4.36604e-07, No Iterations 1
time step continuity errors : sum local = 1.04533e-16, global = -1.73619e-17, cumulative = -5.31661e-11
PIMPLE: Iteration 3
smoothSolver:  Solving for Ux, Initial residual = 1.12312e-13, Final residual = 1.12312e-13, No Iterations 0
smoothSolver:  Solving for Uy, Initial residual = 0.000249757, Final residual = 9.11505e-10, No Iterations 1
smoothSolver:  Solving for Uz, Initial residual = 1.82837e-13, Final residual = 1.82837e-13, No Iterations 0
GAMG:  Solving for p, Initial residual = 4.37156e-07, Final residual = 4.37156e-07, No Iterations 0
time step continuity errors : sum local = 1.04666e-16, global = -1.73048e-17, cumulative = -5.31661e-11
GAMG:  Solving for p, Initial residual = 4.37159e-07, Final residual = 4.37159e-07, No Iterations 0
time step continuity errors : sum local = 1.04666e-16, global = -1.73046e-17, cumulative = -5.31661e-11
GAMG:  Solving for p, Initial residual = 4.37159e-07, Final residual = 4.37159e-07, No Iterations 0
time step continuity errors : sum local = 1.04666e-16, global = -1.73046e-17, cumulative = -5.31661e-11
ExecutionTime = 1261.05 s  ClockTime = 1262 s

Courant Number mean: 1.3699e-05 max: 0.000343579
Time = 0.762

PIMPLE: Iteration 1
smoothSolver:  Solving for Ux, Initial residual = 2.6402e-05, Final residual = 7.07742e-11, No Iterations 1
smoothSolver:  Solving for Uy, Initial residual = 0.000566571, Final residual = 1.51897e-09, No Iterations 1
smoothSolver:  Solving for Uz, Initial residual = 7.28747e-06, Final residual = 1.58941e-11, No Iterations 1
GAMG:  Solving for p, Initial residual = 0.000442107, Final residual = 5.55817e-06, No Iterations 1
time step continuity errors : sum local = 1.33026e-15, global = 1.29562e-16, cumulative = -5.3166e-11
GAMG:  Solving for p, Initial residual = 5.55449e-06, Final residual = 5.55449e-06, No Iterations 0
time step continuity errors : sum local = 1.32887e-15, global = 1.29551e-16, cumulative = -5.31659e-11
GAMG:  Solving for p, Initial residual = 5.55447e-06, Final residual = 7.615e-07, No Iterations 3
time step continuity errors : sum local = 1.82184e-16, global = -7.72832e-17, cumulative = -5.31659e-11
PIMPLE: Iteration 2
smoothSolver:  Solving for Ux, Initial residual = 2.54832e-11, Final residual = 2.54832e-11, No Iterations 0
smoothSolver:  Solving for Uy, Initial residual = 0.00128964, Final residual = 4.74232e-09, No Iterations 1
smoothSolver:  Solving for Uz, Initial residual = 6.5989e-11, Final residual = 6.5989e-11, No Iterations 0
GAMG:  Solving for p, Initial residual = 4.83818e-06, Final residual = 4.83818e-06, No Iterations 0
time step continuity errors : sum local = 1.15739e-15, global = -7.74897e-17, cumulative = -5.3166e-11
GAMG:  Solving for p, Initial residual = 4.84406e-06, Final residual = 4.84406e-06, No Iterations 0
time step continuity errors : sum local = 1.1588e-15, global = -7.74902e-17, cumulative = -5.31661e-11
GAMG:  Solving for p, Initial residual = 4.84408e-06, Final residual = 4.36949e-07, No Iterations 1
time step continuity errors : sum local = 1.04527e-16, global = -1.72668e-17, cumulative = -5.31661e-11
PIMPLE: Iteration 3
smoothSolver:  Solving for Ux, Initial residual = 1.12672e-13, Final residual = 1.12672e-13, No Iterations 0
smoothSolver:  Solving for Uy, Initial residual = 0.000249722, Final residual = 9.11227e-10, No Iterations 1
smoothSolver:  Solving for Uz, Initial residual = 1.8277e-13, Final residual = 1.8277e-13, No Iterations 0
GAMG:  Solving for p, Initial residual = 4.37501e-07, Final residual = 4.37501e-07, No Iterations 0
time step continuity errors : sum local = 1.04659e-16, global = -1.72094e-17, cumulative = -5.31661e-11
GAMG:  Solving for p, Initial residual = 4.37504e-07, Final residual = 4.37504e-07, No Iterations 0
time step continuity errors : sum local = 1.0466e-16, global = -1.72092e-17, cumulative = -5.31661e-11
GAMG:  Solving for p, Initial residual = 4.37504e-07, Final residual = 4.37504e-07, No Iterations 0
time step continuity errors : sum local = 1.0466e-16, global = -1.72092e-17, cumulative = -5.31662e-11
ExecutionTime = 1262.35 s  ClockTime = 1263 s

Courant Number mean: 1.36991e-05 max: 0.000343517
Time = 0.763

PIMPLE: Iteration 1
smoothSolver:  Solving for Ux, Initial residual = 2.63871e-05, Final residual = 7.07288e-11, No Iterations 1
smoothSolver:  Solving for Uy, Initial residual = 0.000734085, Final residual = 1.77093e-09, No Iterations 1
smoothSolver:  Solving for Uz, Initial residual = 7.28418e-06, Final residual = 1.58857e-11, No Iterations 1
GAMG:  Solving for p, Initial residual = 0.000441986, Final residual = 5.55168e-06, No Iterations 1
time step continuity errors : sum local = 1.32758e-15, global = 1.2939e-16, cumulative = -5.3166e-11
GAMG:  Solving for p, Initial residual = 5.54801e-06, Final residual = 5.54801e-06, No Iterations 0
time step continuity errors : sum local = 1.3262e-15, global = 1.29379e-16, cumulative = -5.31659e-11
GAMG:  Solving for p, Initial residual = 5.54799e-06, Final residual = 7.60043e-07, No Iterations 3
time step continuity errors : sum local = 1.81681e-16, global = -7.7052e-17, cumulative = -5.3166e-11
PIMPLE: Iteration 2
smoothSolver:  Solving for Ux, Initial residual = 2.54546e-11, Final residual = 2.54546e-11, No Iterations 0
smoothSolver:  Solving for Uy, Initial residual = 0.0012884, Final residual = 4.73786e-09, No Iterations 1
smoothSolver:  Solving for Uz, Initial residual = 6.59109e-11, Final residual = 6.59109e-11, No Iterations 0
GAMG:  Solving for p, Initial residual = 4.83413e-06, Final residual = 4.83413e-06, No Iterations 0
time step continuity errors : sum local = 1.15544e-15, global = -7.72581e-17, cumulative = -5.3166e-11
GAMG:  Solving for p, Initial residual = 4.84001e-06, Final residual = 4.84001e-06, No Iterations 0
time step continuity errors : sum local = 1.15684e-15, global = -7.72585e-17, cumulative = -5.31661e-11
GAMG:  Solving for p, Initial residual = 4.84003e-06, Final residual = 4.36252e-07, No Iterations 1
time step continuity errors : sum local = 1.04271e-16, global = -1.72629e-17, cumulative = -5.31661e-11
PIMPLE: Iteration 3
smoothSolver:  Solving for Ux, Initial residual = 1.12259e-13, Final residual = 1.12259e-13, No Iterations 0
smoothSolver:  Solving for Uy, Initial residual = 0.000249418, Final residual = 9.10235e-10, No Iterations 1
smoothSolver:  Solving for Uz, Initial residual = 1.82281e-13, Final residual = 1.82281e-13, No Iterations 0
GAMG:  Solving for p, Initial residual = 4.36805e-07, Final residual = 4.36805e-07, No Iterations 0
time step continuity errors : sum local = 1.04404e-16, global = -1.72057e-17, cumulative = -5.31662e-11
GAMG:  Solving for p, Initial residual = 4.36808e-07, Final residual = 4.36808e-07, No Iterations 0
time step continuity errors : sum local = 1.04405e-16, global = -1.72056e-17, cumulative = -5.31662e-11
GAMG:  Solving for p, Initial residual = 4.36808e-07, Final residual = 4.36808e-07, No Iterations 0
time step continuity errors : sum local = 1.04405e-16, global = -1.72056e-17, cumulative = -5.31662e-11
ExecutionTime = 1263.63 s  ClockTime = 1265 s

Courant Number mean: 1.36991e-05 max: 0.000343455
Time = 0.764

PIMPLE: Iteration 1
smoothSolver:  Solving for Ux, Initial residual = 2.63721e-05, Final residual = 7.06834e-11, No Iterations 1
smoothSolver:  Solving for Uy, Initial residual = 0.00072604, Final residual = 1.86024e-09, No Iterations 1
smoothSolver:  Solving for Uz, Initial residual = 7.2809e-06, Final residual = 1.58772e-11, No Iterations 1
GAMG:  Solving for p, Initial residual = 0.000446313, Final residual = 5.70413e-06, No Iterations 1
time step continuity errors : sum local = 1.36287e-15, global = 1.29116e-16, cumulative = -5.31661e-11
GAMG:  Solving for p, Initial residual = 5.70052e-06, Final residual = 5.70052e-06, No Iterations 0
time step continuity errors : sum local = 1.36149e-15, global = 1.29105e-16, cumulative = -5.31659e-11
GAMG:  Solving for p, Initial residual = 5.70051e-06, Final residual = 7.62918e-07, No Iterations 3
time step continuity errors : sum local = 1.82213e-16, global = -7.64295e-17, cumulative = -5.3166e-11
PIMPLE: Iteration 2
smoothSolver:  Solving for Ux, Initial residual = 2.54152e-11, Final residual = 2.54152e-11, No Iterations 0
smoothSolver:  Solving for Uy, Initial residual = 0.00128601, Final residual = 4.72644e-09, No Iterations 1
smoothSolver:  Solving for Uz, Initial residual = 6.58319e-11, Final residual = 6.58319e-11, No Iterations 0
GAMG:  Solving for p, Initial residual = 4.83238e-06, Final residual = 4.83238e-06, No Iterations 0
time step continuity errors : sum local = 1.15404e-15, global = -7.66347e-17, cumulative = -5.31661e-11
GAMG:  Solving for p, Initial residual = 4.83825e-06, Final residual = 4.83825e-06, No Iterations 0
time step continuity errors : sum local = 1.15544e-15, global = -7.66351e-17, cumulative = -5.31662e-11
GAMG:  Solving for p, Initial residual = 4.83827e-06, Final residual = 4.3616e-07, No Iterations 1
time step continuity errors : sum local = 1.04161e-16, global = -1.72105e-17, cumulative = -5.31662e-11
PIMPLE: Iteration 3
smoothSolver:  Solving for Ux, Initial residual = 1.11858e-13, Final residual = 1.11858e-13, No Iterations 0
smoothSolver:  Solving for Uy, Initial residual = 0.000250561, Final residual = 9.14107e-10, No Iterations 1
smoothSolver:  Solving for Uz, Initial residual = 1.81945e-13, Final residual = 1.81945e-13, No Iterations 0
GAMG:  Solving for p, Initial residual = 4.36715e-07, Final residual = 4.36715e-07, No Iterations 0
time step continuity errors : sum local = 1.04294e-16, global = -1.71538e-17, cumulative = -5.31662e-11
GAMG:  Solving for p, Initial residual = 4.36718e-07, Final residual = 4.36718e-07, No Iterations 0
time step continuity errors : sum local = 1.04294e-16, global = -1.71537e-17, cumulative = -5.31662e-11
GAMG:  Solving for p, Initial residual = 4.36718e-07, Final residual = 4.36718e-07, No Iterations 0
time step continuity errors : sum local = 1.04294e-16, global = -1.71537e-17, cumulative = -5.31662e-11
ExecutionTime = 1264.93 s  ClockTime = 1266 s

Courant Number mean: 1.36991e-05 max: 0.000343394
Time = 0.765

PIMPLE: Iteration 1
smoothSolver:  Solving for Ux, Initial residual = 2.63572e-05, Final residual = 7.06381e-11, No Iterations 1
smoothSolver:  Solving for Uy, Initial residual = 0.00147747, Final residual = 3.26248e-09, No Iterations 1
smoothSolver:  Solving for Uz, Initial residual = 7.27742e-06, Final residual = 1.58685e-11, No Iterations 1
GAMG:  Solving for p, Initial residual = 0.000439676, Final residual = 5.54363e-06, No Iterations 1
time step continuity errors : sum local = 1.3234e-15, global = 1.29119e-16, cumulative = -5.31661e-11
GAMG:  Solving for p, Initial residual = 5.54e-06, Final residual = 5.54e-06, No Iterations 0
time step continuity errors : sum local = 1.32203e-15, global = 1.29108e-16, cumulative = -5.3166e-11
GAMG:  Solving for p, Initial residual = 5.53999e-06, Final residual = 7.56933e-07, No Iterations 3
time step continuity errors : sum local = 1.8063e-16, global = -7.63008e-17, cumulative = -5.31661e-11
PIMPLE: Iteration 2
smoothSolver:  Solving for Ux, Initial residual = 2.53956e-11, Final residual = 2.53956e-11, No Iterations 0
smoothSolver:  Solving for Uy, Initial residual = 0.00128522, Final residual = 4.72586e-09, No Iterations 1
smoothSolver:  Solving for Uz, Initial residual = 6.5744e-11, Final residual = 6.5744e-11, No Iterations 0
GAMG:  Solving for p, Initial residual = 4.82534e-06, Final residual = 4.82534e-06, No Iterations 0
time step continuity errors : sum local = 1.15138e-15, global = -7.65059e-17, cumulative = -5.31661e-11
GAMG:  Solving for p, Initial residual = 4.83121e-06, Final residual = 4.83121e-06, No Iterations 0
time step continuity errors : sum local = 1.15278e-15, global = -7.65064e-17, cumulative = -5.31662e-11
GAMG:  Solving for p, Initial residual = 4.83123e-06, Final residual = 4.34657e-07, No Iterations 1
time step continuity errors : sum local = 1.03714e-16, global = -1.72969e-17, cumulative = -5.31662e-11
PIMPLE: Iteration 3
smoothSolver:  Solving for Ux, Initial residual = 1.1108e-13, Final residual = 1.1108e-13, No Iterations 0
smoothSolver:  Solving for Uy, Initial residual = 0.000248494, Final residual = 9.06866e-10, No Iterations 1
smoothSolver:  Solving for Uz, Initial residual = 1.81599e-13, Final residual = 1.81599e-13, No Iterations 0
GAMG:  Solving for p, Initial residual = 4.35212e-07, Final residual = 4.35212e-07, No Iterations 0
time step continuity errors : sum local = 1.03846e-16, global = -1.72405e-17, cumulative = -5.31662e-11
GAMG:  Solving for p, Initial residual = 4.35215e-07, Final residual = 4.35215e-07, No Iterations 0
time step continuity errors : sum local = 1.03847e-16, global = -1.72403e-17, cumulative = -5.31663e-11
GAMG:  Solving for p, Initial residual = 4.35215e-07, Final residual = 4.35215e-07, No Iterations 0
time step continuity errors : sum local = 1.03847e-16, global = -1.72403e-17, cumulative = -5.31663e-11
ExecutionTime = 1266.23 s  ClockTime = 1267 s

Courant Number mean: 1.36991e-05 max: 0.000343332
Time = 0.766

PIMPLE: Iteration 1
smoothSolver:  Solving for Ux, Initial residual = 2.63423e-05, Final residual = 7.05929e-11, No Iterations 1
smoothSolver:  Solving for Uy, Initial residual = 0.00117152, Final residual = 2.5532e-09, No Iterations 1
smoothSolver:  Solving for Uz, Initial residual = 7.27406e-06, Final residual = 1.586e-11, No Iterations 1
GAMG:  Solving for p, Initial residual = 0.000438991, Final residual = 5.53858e-06, No Iterations 1
time step continuity errors : sum local = 1.32107e-15, global = 1.28496e-16, cumulative = -5.31661e-11
GAMG:  Solving for p, Initial residual = 5.53497e-06, Final residual = 5.53497e-06, No Iterations 0
time step continuity errors : sum local = 1.31971e-15, global = 1.28486e-16, cumulative = -5.3166e-11
GAMG:  Solving for p, Initial residual = 5.53495e-06, Final residual = 7.56049e-07, No Iterations 3
time step continuity errors : sum local = 1.80266e-16, global = -7.61519e-17, cumulative = -5.31661e-11
PIMPLE: Iteration 2
smoothSolver:  Solving for Ux, Initial residual = 2.5361e-11, Final residual = 2.5361e-11, No Iterations 0
smoothSolver:  Solving for Uy, Initial residual = 0.0012841, Final residual = 4.72143e-09, No Iterations 1
smoothSolver:  Solving for Uz, Initial residual = 6.56688e-11, Final residual = 6.56688e-11, No Iterations 0
GAMG:  Solving for p, Initial residual = 4.8219e-06, Final residual = 4.8219e-06, No Iterations 0
time step continuity errors : sum local = 1.14958e-15, global = -7.63562e-17, cumulative = -5.31662e-11
GAMG:  Solving for p, Initial residual = 4.82776e-06, Final residual = 4.82776e-06, No Iterations 0
time step continuity errors : sum local = 1.15098e-15, global = -7.63567e-17, cumulative = -5.31662e-11
GAMG:  Solving for p, Initial residual = 4.82778e-06, Final residual = 4.34277e-07, No Iterations 1
time step continuity errors : sum local = 1.03535e-16, global = -1.72386e-17, cumulative = -5.31663e-11
PIMPLE: Iteration 3
